/*---------------------------------------------------------------------------*\
| =========                 |                                                 |
| \\      /  F ield         | OpenFOAM: The Open Source CFD Toolbox           |
|  \\    /   O peration     | Version:  v2012                                 |
|   \\  /    A nd           | Website:  www.openfoam.com                      |
|    \\/     M anipulation  |                                                 |
\*---------------------------------------------------------------------------*/
Build  : _7bdb509494-20201222 OPENFOAM=2012
Arch   : "LSB;label=32;scalar=64"
Exec   : sequentialAcquisitionTest2
Date   : Feb 22 2021
Time   : 12:36:31
Host   : inspiron-UM
PID    : 12372
I/O    : uncollated
Case   : /media/Data/ITHACA-FV/tutorials/inverseHeatTransfer/sequentialAcquisitionTest2/coarseMesh
nProcs : 1
trapFpe: Floating point exception trapping enabled (FOAM_SIGFPE).
fileModificationChecking : Monitoring run-time modified files using timeStampMaster (fileModificationSkew 5, maxFileModificationPolls 20)
allowSystemOperations : Allowing user-supplied system call operations

// * * * * * * * * * * * * * * * * * * * * * * * * * * * * * * * * * * * * * //
Create time

Create mesh for time = 0


SIMPLE: convergence criteria
    field T	 tolerance 1e-12
    field lambda	 tolerance 1e-12
    field deltaT	 tolerance 1e-12

Create field T
First sampling time = 1
Delta time between samples = 1
Number of samplings = 10
Offline don't exist, performing the Offline Solve
POD don't exist, performing a POD decomposition
/*---------------------------------------------------------------------------*\
| =========                 |                                                 |
| \\      /  F ield         | OpenFOAM: The Open Source CFD Toolbox           |
|  \\    /   O peration     | Version:  v2012                                 |
|   \\  /    A nd           | Website:  www.openfoam.com                      |
|    \\/     M anipulation  |                                                 |
\*---------------------------------------------------------------------------*/
Build  : _7bdb509494-20201222 OPENFOAM=2012
Arch   : "LSB;label=32;scalar=64"
Exec   : sequentialAcquisitionTest2
Date   : Feb 22 2021
Time   : 12:36:31
Host   : inspiron-UM
PID    : 12372
--> FOAM Warning : 
    From Foam::entry* Foam::dictionary::add(Foam::entry*, bool)
    in file db/dictionary/dictionary.C at line 777
    Reading "JobInfo" at line 0
    Attempt to add entry startDate which already exists in dictionary "JobInfo"
--> FOAM Warning : 
    From Foam::entry* Foam::dictionary::add(Foam::entry*, bool)
    in file db/dictionary/dictionary.C at line 777
    Reading "JobInfo" at line 0
    Attempt to add entry startTime which already exists in dictionary "JobInfo"
--> FOAM Warning : 
    From Foam::entry* Foam::dictionary::add(Foam::entry*, bool)
    in file db/dictionary/dictionary.C at line 777
    Reading "JobInfo" at line 0
    Attempt to add entry userName which already exists in dictionary "JobInfo"
--> FOAM Warning : 
    From Foam::entry* Foam::dictionary::add(Foam::entry*, bool)
    in file db/dictionary/dictionary.C at line 777
    Reading "JobInfo" at line 0
    Attempt to add entry foamVersion which already exists in dictionary "JobInfo"
--> FOAM Warning : 
    From Foam::entry* Foam::dictionary::add(Foam::entry*, bool)
    in file db/dictionary/dictionary.C at line 777
    Reading "JobInfo" at line 0
    Attempt to add entry code which already exists in dictionary "JobInfo"
--> FOAM Warning : 
    From Foam::entry* Foam::dictionary::add(Foam::entry*, bool)
    in file db/dictionary/dictionary.C at line 777
    Reading "JobInfo" at line 0
    Attempt to add entry argList which already exists in dictionary "JobInfo"
--> FOAM Warning : 
    From Foam::entry* Foam::dictionary::add(Foam::entry*, bool)
    in file db/dictionary/dictionary.C at line 777
    Reading "JobInfo" at line 0
    Attempt to add entry currentDir which already exists in dictionary "JobInfo"
--> FOAM Warning : 
    From Foam::entry* Foam::dictionary::add(Foam::entry*, bool)
    in file db/dictionary/dictionary.C at line 777
    Reading "JobInfo" at line 0
    Attempt to add entry PPID which already exists in dictionary "JobInfo"
--> FOAM Warning : 
    From Foam::entry* Foam::dictionary::add(Foam::entry*, bool)
    in file db/dictionary/dictionary.C at line 777
    Reading "JobInfo" at line 0
    Attempt to add entry PGID which already exists in dictionary "JobInfo"
--> FOAM Warning : 
    From Foam::entry* Foam::dictionary::add(Foam::entry*, bool)
    in file db/dictionary/dictionary.C at line 777
    Reading "JobInfo" at line 0
    Attempt to add entry foamBuild which already exists in dictionary "JobInfo"
I/O    : uncollated
Case   : /media/Data/ITHACA-FV/tutorials/inverseHeatTransfer/sequentialAcquisitionTest2/coarseMesh
nProcs : 1
--> FOAM Warning : 
    From Foam::entry* Foam::dictionary::add(Foam::entry*, bool)
    in file db/dictionary/dictionary.C at line 777
    Reading "JobInfo" at line 0
    Attempt to add entry root which already exists in dictionary "JobInfo"
--> FOAM Warning : 
    From Foam::entry* Foam::dictionary::add(Foam::entry*, bool)
    in file db/dictionary/dictionary.C at line 777
    Reading "JobInfo" at line 0
    Attempt to add entry case which already exists in dictionary "JobInfo"
--> FOAM Warning : 
    From Foam::entry* Foam::dictionary::add(Foam::entry*, bool)
    in file db/dictionary/dictionary.C at line 777
    Reading "JobInfo" at line 0
    Attempt to add entry nProcs which already exists in dictionary "JobInfo"
fileModificationChecking : Monitoring run-time modified files using timeStampMaster (fileModificationSkew 5, maxFileModificationPolls 20)
allowSystemOperations : Allowing user-supplied system call operations

// * * * * * * * * * * * * * * * * * * * * * * * * * * * * * * * * * * * * * //
Create time

Create mesh for time = 0


SIMPLE: convergence criteria
    field T	 tolerance 1e-12
    field lambda	 tolerance 1e-12
    field deltaT	 tolerance 1e-12

Create field T
Offline data already exist, reading existing data
POD data already exist, reading existing modes

 ************************************************************ 
Conducting chirp test to compare performance of steady and unsteady inverse solvers
We assume the heat flux to estimate has the shape:

 g = A + B sin [2 pi (a t) t] 
Maximum frequency is 0.1Hz
 
Using time basis of type constant

Defining positions of thermocouples
Reading thermocouples cells from file

SIMPLE: convergence criteria
    field T	 tolerance 1e-12
    field lambda	 tolerance 1e-12
    field deltaT	 tolerance 1e-12

Ready for new computation

SIMPLE: convergence criteria
    field T	 tolerance 1e-12
    field lambda	 tolerance 1e-12
    field deltaT	 tolerance 1e-12

DT = DT [1 1 -3 -1 0 0 0] 1
DICPCG:  Solving for T, Initial residual = 1, Final residual = 8.493746386756018e-13, No Iterations 30
DICPCG:  Solving for T, Initial residual = 5.321825050587684e-13, Final residual = 5.321825050587684e-13, No Iterations 0

SIMPLE solution converged in 0.2 iterations

Performing true computation

SIMPLE: convergence criteria
    field T	 tolerance 1e-12
    field lambda	 tolerance 1e-12
    field deltaT	 tolerance 1e-12

Ready for new computation
Thermal diffusivity = 0.0001098491366947743 m2/s
Time = 0.1

DICPCG:  Solving for T, Initial residual = 6.570204776090509e-07, Final residual = 8.70714323043825e-13, No Iterations 2

ExecutionTime = 0.14 s  ClockTime = 1 s

Time = 0.2

DICPCG:  Solving for T, Initial residual = 2.628070522992854e-06, Final residual = 2.732428798666766e-15, No Iterations 3

ExecutionTime = 0.16 s  ClockTime = 1 s

Time = 0.3

DICPCG:  Solving for T, Initial residual = 5.913081965648754e-06, Final residual = 5.912450727932352e-15, No Iterations 3

ExecutionTime = 0.18 s  ClockTime = 1 s

Time = 0.4

DICPCG:  Solving for T, Initial residual = 1.051184837037172e-05, Final residual = 1.010163006126484e-14, No Iterations 3

ExecutionTime = 0.2 s  ClockTime = 1 s

Time = 0.5

DICPCG:  Solving for T, Initial residual = 1.642391178842679e-05, Final residual = 1.518600190474654e-14, No Iterations 3

ExecutionTime = 0.22 s  ClockTime = 1 s

Time = 0.6

DICPCG:  Solving for T, Initial residual = 2.364841842835718e-05, Final residual = 2.107196983149787e-14, No Iterations 3

ExecutionTime = 0.23 s  ClockTime = 1 s

Time = 0.7

DICPCG:  Solving for T, Initial residual = 3.218394344506927e-05, Final residual = 2.768482700316359e-14, No Iterations 3

ExecutionTime = 0.25 s  ClockTime = 1 s

Time = 0.8

DICPCG:  Solving for T, Initial residual = 4.20282850414955e-05, Final residual = 3.497364773326878e-14, No Iterations 3

ExecutionTime = 0.27 s  ClockTime = 1 s

Time = 0.9

DICPCG:  Solving for T, Initial residual = 5.317822766381475e-05, Final residual = 4.290763112693622e-14, No Iterations 3

ExecutionTime = 0.29 s  ClockTime = 1 s

Time = 1

DICPCG:  Solving for T, Initial residual = 6.562927422871897e-05, Final residual = 5.142338257436453e-14, No Iterations 3

ExecutionTime = 0.3 s  ClockTime = 1 s

Time = 1.1

DICPCG:  Solving for T, Initial residual = 7.937535572273324e-05, Final residual = 6.048786362934863e-14, No Iterations 3

ExecutionTime = 0.32 s  ClockTime = 1 s

Time = 1.2

DICPCG:  Solving for T, Initial residual = 9.440850222979994e-05, Final residual = 7.008427064707809e-14, No Iterations 3

ExecutionTime = 0.33 s  ClockTime = 1 s

Time = 1.3

DICPCG:  Solving for T, Initial residual = 0.0001107184923405719, Final residual = 8.016783738787154e-14, No Iterations 3

ExecutionTime = 0.35 s  ClockTime = 1 s

Time = 1.4

DICPCG:  Solving for T, Initial residual = 0.0001282924747673345, Final residual = 9.075534780706599e-14, No Iterations 3

ExecutionTime = 0.37 s  ClockTime = 1 s

Time = 1.5

DICPCG:  Solving for T, Initial residual = 0.0001471145650169004, Final residual = 1.018242880809934e-13, No Iterations 3

ExecutionTime = 0.38 s  ClockTime = 1 s

Time = 1.6

DICPCG:  Solving for T, Initial residual = 0.0001671654189426959, Final residual = 1.13297737356631e-13, No Iterations 3

ExecutionTime = 0.4 s  ClockTime = 1 s

Time = 1.7

DICPCG:  Solving for T, Initial residual = 0.0001884217588197663, Final residual = 1.251716283306106e-13, No Iterations 3

ExecutionTime = 0.42 s  ClockTime = 1 s

Time = 1.8

DICPCG:  Solving for T, Initial residual = 0.0002108559700014671, Final residual = 1.373924313268708e-13, No Iterations 3

ExecutionTime = 0.43 s  ClockTime = 1 s

Time = 1.9

DICPCG:  Solving for T, Initial residual = 0.0002344354857936163, Final residual = 1.499670793989001e-13, No Iterations 3

ExecutionTime = 0.45 s  ClockTime = 1 s

Time = 2

DICPCG:  Solving for T, Initial residual = 0.000259122484938373, Final residual = 1.628101307462837e-13, No Iterations 3

ExecutionTime = 0.47 s  ClockTime = 1 s

Time = 2.1

DICPCG:  Solving for T, Initial residual = 0.00028487326168578, Final residual = 1.758786889545314e-13, No Iterations 3

ExecutionTime = 0.48 s  ClockTime = 2 s

Time = 2.2

DICPCG:  Solving for T, Initial residual = 0.0003116378263331475, Final residual = 1.89132265552336e-13, No Iterations 3

ExecutionTime = 0.5 s  ClockTime = 2 s

Time = 2.3

DICPCG:  Solving for T, Initial residual = 0.0003393592847445729, Final residual = 2.02517410754035e-13, No Iterations 3

ExecutionTime = 0.52 s  ClockTime = 2 s

Time = 2.4

DICPCG:  Solving for T, Initial residual = 0.0003679733908329384, Final residual = 2.159847272439758e-13, No Iterations 3

ExecutionTime = 0.54 s  ClockTime = 2 s

Time = 2.5

DICPCG:  Solving for T, Initial residual = 0.0003974079569296253, Final residual = 2.29487622208116e-13, No Iterations 3

ExecutionTime = 0.5600000000000001 s  ClockTime = 2 s

Time = 2.6

DICPCG:  Solving for T, Initial residual = 0.0004275826234606087, Final residual = 2.429809178516285e-13, No Iterations 3

ExecutionTime = 0.58 s  ClockTime = 2 s

Time = 2.7

DICPCG:  Solving for T, Initial residual = 0.0004584080529723076, Final residual = 2.563973051652879e-13, No Iterations 3

ExecutionTime = 0.6 s  ClockTime = 2 s

Time = 2.8

DICPCG:  Solving for T, Initial residual = 0.0004897860313010293, Final residual = 2.696524669912394e-13, No Iterations 3

ExecutionTime = 0.61 s  ClockTime = 2 s

Time = 2.9

DICPCG:  Solving for T, Initial residual = 0.00052160879456431, Final residual = 2.826683549495912e-13, No Iterations 3

ExecutionTime = 0.63 s  ClockTime = 2 s

Time = 3

DICPCG:  Solving for T, Initial residual = 0.0005537587442738692, Final residual = 2.953592467672921e-13, No Iterations 3

ExecutionTime = 0.65 s  ClockTime = 2 s

Time = 3.1

DICPCG:  Solving for T, Initial residual = 0.0005861081984591632, Final residual = 3.076371167195226e-13, No Iterations 3

ExecutionTime = 0.66 s  ClockTime = 2 s

Time = 3.2

DICPCG:  Solving for T, Initial residual = 0.0006185194384937731, Final residual = 3.194105473308214e-13, No Iterations 3

ExecutionTime = 0.68 s  ClockTime = 2 s

Time = 3.3

DICPCG:  Solving for T, Initial residual = 0.0006508437976669688, Final residual = 3.305901317106734e-13, No Iterations 3

ExecutionTime = 0.6899999999999999 s  ClockTime = 2 s

Time = 3.4

DICPCG:  Solving for T, Initial residual = 0.0006829223499581598, Final residual = 3.41100589512129e-13, No Iterations 3

ExecutionTime = 0.71 s  ClockTime = 2 s

Time = 3.5

DICPCG:  Solving for T, Initial residual = 0.0007145869973176042, Final residual = 3.509194555191593e-13, No Iterations 3

ExecutionTime = 0.73 s  ClockTime = 2 s

Time = 3.6

DICPCG:  Solving for T, Initial residual = 0.0007456585520848306, Final residual = 3.599307238672801e-13, No Iterations 3

ExecutionTime = 0.75 s  ClockTime = 2 s

Time = 3.7

DICPCG:  Solving for T, Initial residual = 0.0007759481763830397, Final residual = 3.679790414858677e-13, No Iterations 3

ExecutionTime = 0.76 s  ClockTime = 2 s

Time = 3.8

DICPCG:  Solving for T, Initial residual = 0.000805258869213786, Final residual = 3.749358509215399e-13, No Iterations 3

ExecutionTime = 0.78 s  ClockTime = 2 s

Time = 3.9

DICPCG:  Solving for T, Initial residual = 0.0008333828017490937, Final residual = 3.80690443456724e-13, No Iterations 3

ExecutionTime = 0.79 s  ClockTime = 2 s

Time = 4

DICPCG:  Solving for T, Initial residual = 0.0008601052851868855, Final residual = 3.851128694613027e-13, No Iterations 3

ExecutionTime = 0.8100000000000001 s  ClockTime = 2 s

Time = 4.1

DICPCG:  Solving for T, Initial residual = 0.0008852049202478791, Final residual = 3.880831721184734e-13, No Iterations 3

ExecutionTime = 0.83 s  ClockTime = 3 s

Time = 4.2

DICPCG:  Solving for T, Initial residual = 0.0009084537332147283, Final residual = 3.894811130939435e-13, No Iterations 3

ExecutionTime = 0.84 s  ClockTime = 3 s

Time = 4.3

DICPCG:  Solving for T, Initial residual = 0.0009296191817271313, Final residual = 3.892286247029243e-13, No Iterations 3

ExecutionTime = 0.86 s  ClockTime = 3 s

Time = 4.4

DICPCG:  Solving for T, Initial residual = 0.0009484642513300763, Final residual = 3.872039172695429e-13, No Iterations 3

ExecutionTime = 0.88 s  ClockTime = 3 s

Time = 4.5

DICPCG:  Solving for T, Initial residual = 0.0009647515864634916, Final residual = 3.833324335637131e-13, No Iterations 3

ExecutionTime = 0.9 s  ClockTime = 3 s

Time = 4.6

DICPCG:  Solving for T, Initial residual = 0.000978241778312053, Final residual = 3.774750960095021e-13, No Iterations 3

ExecutionTime = 0.92 s  ClockTime = 3 s

Time = 4.7

DICPCG:  Solving for T, Initial residual = 0.0009886967487788545, Final residual = 3.694825953829552e-13, No Iterations 3

ExecutionTime = 0.93 s  ClockTime = 3 s

Time = 4.8

DICPCG:  Solving for T, Initial residual = 0.0009958812427578974, Final residual = 3.591456709596416e-13, No Iterations 3

ExecutionTime = 0.95 s  ClockTime = 3 s

Time = 4.9

DICPCG:  Solving for T, Initial residual = 0.0009995662358064214, Final residual = 3.463771304935964e-13, No Iterations 3

ExecutionTime = 0.97 s  ClockTime = 3 s

Time = 5

DICPCG:  Solving for T, Initial residual = 0.0009995302959075103, Final residual = 3.311697301803101e-13, No Iterations 3

ExecutionTime = 0.98 s  ClockTime = 3 s

Time = 5.1

DICPCG:  Solving for T, Initial residual = 0.0009955622256348057, Final residual = 3.13192511478498e-13, No Iterations 3

ExecutionTime = 1 s  ClockTime = 3 s

Time = 5.2

DICPCG:  Solving for T, Initial residual = 0.0009874637279555472, Final residual = 2.922618894909069e-13, No Iterations 3

ExecutionTime = 1.02 s  ClockTime = 3 s

Time = 5.3

DICPCG:  Solving for T, Initial residual = 0.0009750500657788693, Final residual = 2.684401813144726e-13, No Iterations 3

ExecutionTime = 1.04 s  ClockTime = 3 s

Time = 5.4

DICPCG:  Solving for T, Initial residual = 0.0009581559831015023, Final residual = 2.415739571399931e-13, No Iterations 3

ExecutionTime = 1.06 s  ClockTime = 3 s

Time = 5.5

DICPCG:  Solving for T, Initial residual = 0.0009366375725457934, Final residual = 2.12114091333259e-13, No Iterations 3

ExecutionTime = 1.07 s  ClockTime = 3 s

Time = 5.6

DICPCG:  Solving for T, Initial residual = 0.0009103741067288055, Final residual = 1.784611649587644e-13, No Iterations 3

ExecutionTime = 1.09 s  ClockTime = 3 s

Time = 5.7

DICPCG:  Solving for T, Initial residual = 0.000879270680782891, Final residual = 1.388746577971962e-13, No Iterations 3

ExecutionTime = 1.1 s  ClockTime = 3 s

Time = 5.8

DICPCG:  Solving for T, Initial residual = 0.0008432638621280213, Final residual = 1.320145431485361e-13, No Iterations 3

ExecutionTime = 1.12 s  ClockTime = 3 s

Time = 5.9

DICPCG:  Solving for T, Initial residual = 0.0008023220592891809, Final residual = 1.59624740860602e-13, No Iterations 3

ExecutionTime = 1.14 s  ClockTime = 3 s

Time = 6

DICPCG:  Solving for T, Initial residual = 0.0007564496262553005, Final residual = 1.845129390921907e-13, No Iterations 3

ExecutionTime = 1.15 s  ClockTime = 3 s

Time = 6.1

DICPCG:  Solving for T, Initial residual = 0.0007243402315092908, Final residual = 2.051757392009148e-13, No Iterations 3

ExecutionTime = 1.17 s  ClockTime = 3 s

Time = 6.2

DICPCG:  Solving for T, Initial residual = 0.0007269341934882434, Final residual = 2.285920900767066e-13, No Iterations 3

ExecutionTime = 1.19 s  ClockTime = 4 s

Time = 6.3

DICPCG:  Solving for T, Initial residual = 0.0007267342264350881, Final residual = 2.530863797084932e-13, No Iterations 3

ExecutionTime = 1.2 s  ClockTime = 4 s

Time = 6.4

DICPCG:  Solving for T, Initial residual = 0.0007235702298573777, Final residual = 2.745824358745994e-13, No Iterations 3

ExecutionTime = 1.22 s  ClockTime = 4 s

Time = 6.5

DICPCG:  Solving for T, Initial residual = 0.0007172801313991477, Final residual = 2.95482425338389e-13, No Iterations 3

ExecutionTime = 1.23 s  ClockTime = 4 s

Time = 6.6

DICPCG:  Solving for T, Initial residual = 0.000707712255259626, Final residual = 3.181313583646986e-13, No Iterations 3

ExecutionTime = 1.25 s  ClockTime = 4 s

Time = 6.7

DICPCG:  Solving for T, Initial residual = 0.000727936581037867, Final residual = 3.463080598714691e-13, No Iterations 3

ExecutionTime = 1.27 s  ClockTime = 4 s

Time = 6.8

DICPCG:  Solving for T, Initial residual = 0.0007522210492641431, Final residual = 3.847262510268493e-13, No Iterations 3

ExecutionTime = 1.29 s  ClockTime = 4 s

Time = 6.9

DICPCG:  Solving for T, Initial residual = 0.0007738185489419346, Final residual = 4.281964562303161e-13, No Iterations 3

ExecutionTime = 1.31 s  ClockTime = 4 s

Time = 7

DICPCG:  Solving for T, Initial residual = 0.0007998798883406735, Final residual = 4.652312510841794e-13, No Iterations 3

ExecutionTime = 1.32 s  ClockTime = 4 s

Time = 7.1

DICPCG:  Solving for T, Initial residual = 0.0008458677641182414, Final residual = 4.914663594427738e-13, No Iterations 3

ExecutionTime = 1.35 s  ClockTime = 4 s

Time = 7.2

DICPCG:  Solving for T, Initial residual = 0.0008888039793939429, Final residual = 5.17212882741625e-13, No Iterations 3

ExecutionTime = 1.36 s  ClockTime = 4 s

Time = 7.3

DICPCG:  Solving for T, Initial residual = 0.0009281226032714805, Final residual = 5.40383821818252e-13, No Iterations 3

ExecutionTime = 1.38 s  ClockTime = 4 s

Time = 7.4

DICPCG:  Solving for T, Initial residual = 0.0009766575450627986, Final residual = 5.618560844105149e-13, No Iterations 3

ExecutionTime = 1.4 s  ClockTime = 4 s

Time = 7.5

DICPCG:  Solving for T, Initial residual = 0.001030793989711645, Final residual = 5.872706674588258e-13, No Iterations 3

ExecutionTime = 1.41 s  ClockTime = 4 s

Time = 7.6

DICPCG:  Solving for T, Initial residual = 0.001079934275591268, Final residual = 6.081509423454677e-13, No Iterations 3

ExecutionTime = 1.42 s  ClockTime = 4 s

Time = 7.7

DICPCG:  Solving for T, Initial residual = 0.001123320461635203, Final residual = 6.261021898248194e-13, No Iterations 3

ExecutionTime = 1.44 s  ClockTime = 4 s

Time = 7.8

DICPCG:  Solving for T, Initial residual = 0.001174514533249192, Final residual = 6.431850967896672e-13, No Iterations 3

ExecutionTime = 1.45 s  ClockTime = 4 s

Time = 7.9

DICPCG:  Solving for T, Initial residual = 0.001222316607768927, Final residual = 6.54496191450367e-13, No Iterations 3

ExecutionTime = 1.47 s  ClockTime = 4 s

Time = 8

DICPCG:  Solving for T, Initial residual = 0.001262273459455042, Final residual = 6.613631888830463e-13, No Iterations 3

ExecutionTime = 1.49 s  ClockTime = 4 s

Time = 8.1

DICPCG:  Solving for T, Initial residual = 0.001293543402587567, Final residual = 6.64657555035177e-13, No Iterations 3

ExecutionTime = 1.51 s  ClockTime = 4 s

Time = 8.2

DICPCG:  Solving for T, Initial residual = 0.001327636762406353, Final residual = 6.608764535937236e-13, No Iterations 3

ExecutionTime = 1.52 s  ClockTime = 5 s

Time = 8.3

DICPCG:  Solving for T, Initial residual = 0.001352909541218257, Final residual = 6.495746384479788e-13, No Iterations 3

ExecutionTime = 1.54 s  ClockTime = 5 s

Time = 8.4

DICPCG:  Solving for T, Initial residual = 0.001367226613837208, Final residual = 6.323966527513068e-13, No Iterations 3

ExecutionTime = 1.56 s  ClockTime = 5 s

Time = 8.5

DICPCG:  Solving for T, Initial residual = 0.001369865475687699, Final residual = 6.07557918611577e-13, No Iterations 3

ExecutionTime = 1.58 s  ClockTime = 5 s

Time = 8.6

DICPCG:  Solving for T, Initial residual = 0.001369042804657615, Final residual = 5.743686433111525e-13, No Iterations 3

ExecutionTime = 1.6 s  ClockTime = 5 s

Time = 8.7

DICPCG:  Solving for T, Initial residual = 0.001356860715403928, Final residual = 5.341324081551507e-13, No Iterations 3

ExecutionTime = 1.61 s  ClockTime = 5 s

Time = 8.8

DICPCG:  Solving for T, Initial residual = 0.001331405889307846, Final residual = 4.844748583373843e-13, No Iterations 3

ExecutionTime = 1.63 s  ClockTime = 5 s

Time = 8.9

DICPCG:  Solving for T, Initial residual = 0.001292376951648529, Final residual = 4.25965174950784e-13, No Iterations 3

ExecutionTime = 1.65 s  ClockTime = 5 s

Time = 9

DICPCG:  Solving for T, Initial residual = 0.001244472927881589, Final residual = 3.590676884583271e-13, No Iterations 3

ExecutionTime = 1.67 s  ClockTime = 5 s

Time = 9.1

DICPCG:  Solving for T, Initial residual = 0.001185706342388078, Final residual = 2.803357007750114e-13, No Iterations 3

ExecutionTime = 1.68 s  ClockTime = 5 s

Time = 9.2

DICPCG:  Solving for T, Initial residual = 0.001113447663984842, Final residual = 1.810646181481967e-13, No Iterations 3

ExecutionTime = 1.7 s  ClockTime = 5 s

Time = 9.3

DICPCG:  Solving for T, Initial residual = 0.001028139904959282, Final residual = 2.140410886632176e-13, No Iterations 3

ExecutionTime = 1.71 s  ClockTime = 5 s

Time = 9.4

DICPCG:  Solving for T, Initial residual = 0.0009313499463466961, Final residual = 2.632728579154116e-13, No Iterations 3

ExecutionTime = 1.73 s  ClockTime = 5 s

Time = 9.5

DICPCG:  Solving for T, Initial residual = 0.0008608293706989132, Final residual = 3.016090679103807e-13, No Iterations 3

ExecutionTime = 1.75 s  ClockTime = 5 s

Time = 9.6

DICPCG:  Solving for T, Initial residual = 0.0008690797347019445, Final residual = 3.408816869665955e-13, No Iterations 3

ExecutionTime = 1.76 s  ClockTime = 5 s

Time = 9.7

DICPCG:  Solving for T, Initial residual = 0.0008682233997216859, Final residual = 3.715581001776382e-13, No Iterations 3

ExecutionTime = 1.78 s  ClockTime = 5 s

Time = 9.8

DICPCG:  Solving for T, Initial residual = 0.0008578763179417971, Final residual = 3.924391531074927e-13, No Iterations 3

ExecutionTime = 1.8 s  ClockTime = 5 s

Time = 9.9

DICPCG:  Solving for T, Initial residual = 0.0008391566953724049, Final residual = 4.04604238021832e-13, No Iterations 3

ExecutionTime = 1.81 s  ClockTime = 5 s

Time = 10

DICPCG:  Solving for T, Initial residual = 0.0008455403210502036, Final residual = 4.414501180779326e-13, No Iterations 3

ExecutionTime = 1.83 s  ClockTime = 5 s


 Sampling for ALL sampling times 



Sampling done 

End


SIMPLE: convergence criteria
    field T	 tolerance 1e-12
    field lambda	 tolerance 1e-12
    field deltaT	 tolerance 1e-12

Ready for new computation
Reading thermocouples cells from file
*********************************************************
Performing offline part of STEADY test

Radial Basis Functions are used.
gWeights = 15{0}

Computing offline

SIMPLE: convergence criteria
    field T	 tolerance 1e-12
    field lambda	 tolerance 1e-12
    field deltaT	 tolerance 1e-12

Ready for new computation
DICPCG:  Solving for T, Initial residual = 1, Final residual = 4.179158024480434e-13, No Iterations 30
Solving for j = 0

SIMPLE: convergence criteria
    field T	 tolerance 1e-12
    field lambda	 tolerance 1e-12
    field deltaT	 tolerance 1e-12

Ready for new computation
DICPCG:  Solving for T, Initial residual = 1, Final residual = 4.179166101163202e-13, No Iterations 30
Solving for j = 1

SIMPLE: convergence criteria
    field T	 tolerance 1e-12
    field lambda	 tolerance 1e-12
    field deltaT	 tolerance 1e-12

Ready for new computation
DICPCG:  Solving for T, Initial residual = 1, Final residual = 4.179161753443145e-13, No Iterations 30
Solving for j = 2

SIMPLE: convergence criteria
    field T	 tolerance 1e-12
    field lambda	 tolerance 1e-12
    field deltaT	 tolerance 1e-12

Ready for new computation
DICPCG:  Solving for T, Initial residual = 1, Final residual = 4.179156863287667e-13, No Iterations 30
Solving for j = 3

SIMPLE: convergence criteria
    field T	 tolerance 1e-12
    field lambda	 tolerance 1e-12
    field deltaT	 tolerance 1e-12

Ready for new computation
DICPCG:  Solving for T, Initial residual = 1, Final residual = 4.179151991782252e-13, No Iterations 30
Solving for j = 4

SIMPLE: convergence criteria
    field T	 tolerance 1e-12
    field lambda	 tolerance 1e-12
    field deltaT	 tolerance 1e-12

Ready for new computation
DICPCG:  Solving for T, Initial residual = 1, Final residual = 4.179147700825619e-13, No Iterations 30
Solving for j = 5

SIMPLE: convergence criteria
    field T	 tolerance 1e-12
    field lambda	 tolerance 1e-12
    field deltaT	 tolerance 1e-12

Ready for new computation
DICPCG:  Solving for T, Initial residual = 1, Final residual = 4.179166463205719e-13, No Iterations 30
Solving for j = 6

SIMPLE: convergence criteria
    field T	 tolerance 1e-12
    field lambda	 tolerance 1e-12
    field deltaT	 tolerance 1e-12

Ready for new computation
DICPCG:  Solving for T, Initial residual = 1, Final residual = 4.179161890712304e-13, No Iterations 30
Solving for j = 7

SIMPLE: convergence criteria
    field T	 tolerance 1e-12
    field lambda	 tolerance 1e-12
    field deltaT	 tolerance 1e-12

Ready for new computation
DICPCG:  Solving for T, Initial residual = 1, Final residual = 4.179156749096061e-13, No Iterations 30
Solving for j = 8

SIMPLE: convergence criteria
    field T	 tolerance 1e-12
    field lambda	 tolerance 1e-12
    field deltaT	 tolerance 1e-12

Ready for new computation
DICPCG:  Solving for T, Initial residual = 1, Final residual = 4.179151628194094e-13, No Iterations 30
Solving for j = 9

SIMPLE: convergence criteria
    field T	 tolerance 1e-12
    field lambda	 tolerance 1e-12
    field deltaT	 tolerance 1e-12

Ready for new computation
DICPCG:  Solving for T, Initial residual = 1, Final residual = 4.179147118703945e-13, No Iterations 30
Solving for j = 10

SIMPLE: convergence criteria
    field T	 tolerance 1e-12
    field lambda	 tolerance 1e-12
    field deltaT	 tolerance 1e-12

Ready for new computation
DICPCG:  Solving for T, Initial residual = 1, Final residual = 4.179166311624432e-13, No Iterations 30
Solving for j = 11

SIMPLE: convergence criteria
    field T	 tolerance 1e-12
    field lambda	 tolerance 1e-12
    field deltaT	 tolerance 1e-12

Ready for new computation
DICPCG:  Solving for T, Initial residual = 1, Final residual = 4.179161784897329e-13, No Iterations 30
Solving for j = 12

SIMPLE: convergence criteria
    field T	 tolerance 1e-12
    field lambda	 tolerance 1e-12
    field deltaT	 tolerance 1e-12

Ready for new computation
DICPCG:  Solving for T, Initial residual = 1, Final residual = 4.179156696168549e-13, No Iterations 30
Solving for j = 13

SIMPLE: convergence criteria
    field T	 tolerance 1e-12
    field lambda	 tolerance 1e-12
    field deltaT	 tolerance 1e-12

Ready for new computation
DICPCG:  Solving for T, Initial residual = 1, Final residual = 4.179151629118322e-13, No Iterations 30
Solving for j = 14

SIMPLE: convergence criteria
    field T	 tolerance 1e-12
    field lambda	 tolerance 1e-12
    field deltaT	 tolerance 1e-12

Ready for new computation
DICPCG:  Solving for T, Initial residual = 1, Final residual = 4.179147168310692e-13, No Iterations 30
######### Exporting the Data for T #########
  6% [||||                                                        ] 13% [||||||||                                                    ] 20% [||||||||||||                                                ] 26% [||||||||||||||||                                            ] 33% [||||||||||||||||||||                                        ] 40% [||||||||||||||||||||||||                                    ] 46% [||||||||||||||||||||||||||||                                ] 53% [||||||||||||||||||||||||||||||||                            ] 60% [||||||||||||||||||||||||||||||||||||                        ] 66% [||||||||||||||||||||||||||||||||||||||||                    ] 73% [||||||||||||||||||||||||||||||||||||||||||||                ] 80% [||||||||||||||||||||||||||||||||||||||||||||||||            ] 86% [||||||||||||||||||||||||||||||||||||||||||||||||||||        ] 93% [||||||||||||||||||||||||||||||||||||||||||||||||||||||||    ]100% [||||||||||||||||||||||||||||||||||||||||||||||||||||||||||||]

Offline part ENDED

Condition number = 1.220947657258528e+16
*********************************************************
Performing STEADY test for sampling time 1 s

Solver: fullPivLU 


Using quasilinearity of direct problem
Theta size = 15, 15
Reconstructing field T

SIMPLE: convergence criteria
    field T	 tolerance 1e-12
    field lambda	 tolerance 1e-12
    field deltaT	 tolerance 1e-12

Ready for new computation
J = 0.0001156935377631807
End

Computation ENDED, saving solution

*********************************************************
Performing STEADY test for sampling time 2 s

Solver: fullPivLU 


Using quasilinearity of direct problem
Theta size = 15, 15
Reconstructing field T

SIMPLE: convergence criteria
    field T	 tolerance 1e-12
    field lambda	 tolerance 1e-12
    field deltaT	 tolerance 1e-12

Ready for new computation
J = 0.0001161638678178877
End

Computation ENDED, saving solution

*********************************************************
Performing STEADY test for sampling time 3 s

Solver: fullPivLU 


Using quasilinearity of direct problem
Theta size = 15, 15
Reconstructing field T

SIMPLE: convergence criteria
    field T	 tolerance 1e-12
    field lambda	 tolerance 1e-12
    field deltaT	 tolerance 1e-12

Ready for new computation
J = 0.0001175860499506931
End

Computation ENDED, saving solution

*********************************************************
Performing STEADY test for sampling time 4 s

Solver: fullPivLU 


Using quasilinearity of direct problem
Theta size = 15, 15
Reconstructing field T

SIMPLE: convergence criteria
    field T	 tolerance 1e-12
    field lambda	 tolerance 1e-12
    field deltaT	 tolerance 1e-12

Ready for new computation
J = 0.0001202452868849274
End

Computation ENDED, saving solution

*********************************************************
Performing STEADY test for sampling time 5 s

Solver: fullPivLU 


Using quasilinearity of direct problem
Theta size = 15, 15
Reconstructing field T

SIMPLE: convergence criteria
    field T	 tolerance 1e-12
    field lambda	 tolerance 1e-12
    field deltaT	 tolerance 1e-12

Ready for new computation
J = 0.0001239678015903289
End

Computation ENDED, saving solution

*********************************************************
Performing STEADY test for sampling time 6 s

Solver: fullPivLU 


Using quasilinearity of direct problem
Theta size = 15, 15
Reconstructing field T

SIMPLE: convergence criteria
    field T	 tolerance 1e-12
    field lambda	 tolerance 1e-12
    field deltaT	 tolerance 1e-12

Ready for new computation
J = 0.0001276409797084968
End

Computation ENDED, saving solution

*********************************************************
Performing STEADY test for sampling time 7 s

Solver: fullPivLU 


Using quasilinearity of direct problem
Theta size = 15, 15
Reconstructing field T

SIMPLE: convergence criteria
    field T	 tolerance 1e-12
    field lambda	 tolerance 1e-12
    field deltaT	 tolerance 1e-12

Ready for new computation
J = 0.0001292913924781475
End

Computation ENDED, saving solution

*********************************************************
Performing STEADY test for sampling time 8 s

Solver: fullPivLU 


Using quasilinearity of direct problem
Theta size = 15, 15
Reconstructing field T

SIMPLE: convergence criteria
    field T	 tolerance 1e-12
    field lambda	 tolerance 1e-12
    field deltaT	 tolerance 1e-12

Ready for new computation
J = 0.0001271316743751728
End

Computation ENDED, saving solution

*********************************************************
Performing STEADY test for sampling time 9 s

Solver: fullPivLU 


Using quasilinearity of direct problem
Theta size = 15, 15
Reconstructing field T

SIMPLE: convergence criteria
    field T	 tolerance 1e-12
    field lambda	 tolerance 1e-12
    field deltaT	 tolerance 1e-12

Ready for new computation
J = 0.0001222018606288078
End

Computation ENDED, saving solution

*********************************************************
Performing STEADY test for sampling time 10 s

Solver: fullPivLU 


Using quasilinearity of direct problem
Theta size = 15, 15
Reconstructing field T

SIMPLE: convergence criteria
    field T	 tolerance 1e-12
    field lambda	 tolerance 1e-12
    field deltaT	 tolerance 1e-12

Ready for new computation
J = 0.000118517173958937
End

Computation ENDED, saving solution

Computing errors
######### Reading the Data for gParametrized #########
 16% [||||||||||                                                  ] 25% [|||||||||||||||                                             ] 33% [||||||||||||||||||||                                        ] 41% [|||||||||||||||||||||||||                                   ] 50% [||||||||||||||||||||||||||||||                              ] 58% [|||||||||||||||||||||||||||||||||||                         ] 66% [||||||||||||||||||||||||||||||||||||||||                    ] 75% [|||||||||||||||||||||||||||||||||||||||||||||               ] 83% [||||||||||||||||||||||||||||||||||||||||||||||||||          ] 91% [|||||||||||||||||||||||||||||||||||||||||||||||||||||||     ]100% [||||||||||||||||||||||||||||||||||||||||||||||||||||||||||||]
######### Reading the Data for gTrue #########
 16% [||||||||||                                                  ] 25% [|||||||||||||||                                             ] 33% [||||||||||||||||||||                                        ] 41% [|||||||||||||||||||||||||                                   ] 50% [||||||||||||||||||||||||||||||                              ] 58% [|||||||||||||||||||||||||||||||||||                         ] 66% [||||||||||||||||||||||||||||||||||||||||                    ] 75% [|||||||||||||||||||||||||||||||||||||||||||||               ] 83% [||||||||||||||||||||||||||||||||||||||||||||||||||          ] 91% [|||||||||||||||||||||||||||||||||||||||||||||||||||||||     ]100% [||||||||||||||||||||||||||||||||||||||||||||||||||||||||||||]
######### Reading the Data for T #########
 16% [||||||||||                                                  ] 25% [|||||||||||||||                                             ] 33% [||||||||||||||||||||                                        ] 41% [|||||||||||||||||||||||||                                   ] 50% [||||||||||||||||||||||||||||||                              ] 58% [|||||||||||||||||||||||||||||||||||                         ] 66% [||||||||||||||||||||||||||||||||||||||||                    ] 75% [|||||||||||||||||||||||||||||||||||||||||||||               ] 83% [||||||||||||||||||||||||||||||||||||||||||||||||||          ] 91% [|||||||||||||||||||||||||||||||||||||||||||||||||||||||     ]100% [||||||||||||||||||||||||||||||||||||||||||||||||||||||||||||]
Radial Basis Functions are used.
The center of each function is at the projection 
of each thermocouple on the boundary hotSide.

Using LINEAR basis in time

Computing offline
ThetaNew size = 15, 15
Solving additional problem
Setting endTime to offlineEndTime

SIMPLE: convergence criteria
    field T	 tolerance 1e-12
    field lambda	 tolerance 1e-12
    field deltaT	 tolerance 1e-12

Ready for new computation
Ready for new offline computation
Time = 0.1

DICPCG:  Solving for T, Initial residual = 1, Final residual = 5.471507509866173e-13, No Iterations 4
ExecutionTime = 2.74 s  ClockTime = 8 s

Time = 0.2

DICPCG:  Solving for T, Initial residual = 0.2036896347331173, Final residual = 9.884014559553049e-14, No Iterations 4
ExecutionTime = 2.75 s  ClockTime = 8 s

Time = 0.3

DICPCG:  Solving for T, Initial residual = 0.1130637514681636, Final residual = 4.852103375809607e-14, No Iterations 4
ExecutionTime = 2.75 s  ClockTime = 8 s

Time = 0.4

DICPCG:  Solving for T, Initial residual = 0.07750726765479704, Final residual = 2.893513840567946e-14, No Iterations 4
ExecutionTime = 2.76 s  ClockTime = 8 s

Time = 0.5

DICPCG:  Solving for T, Initial residual = 0.05858965286872692, Final residual = 1.882138351450874e-14, No Iterations 4
ExecutionTime = 2.77 s  ClockTime = 8 s

Time = 0.6

DICPCG:  Solving for T, Initial residual = 0.04718885152544385, Final residual = 1.318145662133883e-14, No Iterations 4
ExecutionTime = 2.78 s  ClockTime = 8 s

Time = 0.7

DICPCG:  Solving for T, Initial residual = 0.03951584733503265, Final residual = 9.792895397873385e-15, No Iterations 4
ExecutionTime = 2.79 s  ClockTime = 8 s

Time = 0.8

DICPCG:  Solving for T, Initial residual = 0.03400309315492323, Final residual = 7.64533395931731e-15, No Iterations 4
ExecutionTime = 2.8 s  ClockTime = 8 s

Time = 0.9

DICPCG:  Solving for T, Initial residual = 0.02985616571999591, Final residual = 6.186680857901159e-15, No Iterations 4
ExecutionTime = 2.82 s  ClockTime = 8 s

Time = 1

DICPCG:  Solving for T, Initial residual = 0.02667709500027988, Final residual = 5.153216273416923e-15, No Iterations 4
ExecutionTime = 2.83 s  ClockTime = 8 s

Tad_time.size = 10
Ntime = 100
END 

Offline for OLD time base

--------------------------------------

Base 1 of 15

--------------------------------------


SIMPLE: convergence criteria
    field T	 tolerance 1e-12
    field lambda	 tolerance 1e-12
    field deltaT	 tolerance 1e-12

Ready for new computation
debug : wOld = 

15
(
1
0
0
0
0
0
0
0
0
0
0
0
0
0
0
)

debug : wNew = 
15{0}
Offline heat flux update
Setting endTime to offlineEndTime

SIMPLE: convergence criteria
    field T	 tolerance 1e-12
    field lambda	 tolerance 1e-12
    field deltaT	 tolerance 1e-12

Ready for new computation
Ready for new offline computation
Time = 0.1

DICPCG:  Solving for T, Initial residual = 1, Final residual = 5.471506429715632e-13, No Iterations 4
ExecutionTime = 2.85 s  ClockTime = 8 s

Time = 0.2

DICPCG:  Solving for T, Initial residual = 0.2036896506601615, Final residual = 9.884013213596105e-14, No Iterations 4
ExecutionTime = 2.85 s  ClockTime = 8 s

Time = 0.3

DICPCG:  Solving for T, Initial residual = 0.1130637612946862, Final residual = 4.852102720067718e-14, No Iterations 4
ExecutionTime = 2.85 s  ClockTime = 8 s

Time = 0.4

DICPCG:  Solving for T, Initial residual = 0.07750727362034426, Final residual = 2.893513441754902e-14, No Iterations 4
ExecutionTime = 2.86 s  ClockTime = 8 s

Time = 0.5

DICPCG:  Solving for T, Initial residual = 0.05858965555400789, Final residual = 1.882138085727256e-14, No Iterations 4
ExecutionTime = 2.86 s  ClockTime = 8 s

Time = 0.6

DICPCG:  Solving for T, Initial residual = 0.04718885065186068, Final residual = 1.318145466816919e-14, No Iterations 4
ExecutionTime = 2.87 s  ClockTime = 8 s

Time = 0.7

DICPCG:  Solving for T, Initial residual = 0.03951584274762455, Final residual = 9.792893922109639e-15, No Iterations 4
ExecutionTime = 2.87 s  ClockTime = 8 s

Time = 0.8

DICPCG:  Solving for T, Initial residual = 0.03400308616240708, Final residual = 7.645332710844801e-15, No Iterations 4
ExecutionTime = 2.87 s  ClockTime = 8 s

Time = 0.9

DICPCG:  Solving for T, Initial residual = 0.02985615870847968, Final residual = 6.186679844976584e-15, No Iterations 4
ExecutionTime = 2.88 s  ClockTime = 8 s

Time = 1

DICPCG:  Solving for T, Initial residual = 0.02667708845322728, Final residual = 5.153215450669107e-15, No Iterations 4
ExecutionTime = 2.88 s  ClockTime = 8 s

debug : timeI = 10
Direct computation ENDED

--------------------------------------

Base 2 of 15

--------------------------------------


SIMPLE: convergence criteria
    field T	 tolerance 1e-12
    field lambda	 tolerance 1e-12
    field deltaT	 tolerance 1e-12

Ready for new computation
debug : wOld = 

15
(
0
1
0
0
0
0
0
0
0
0
0
0
0
0
0
)

debug : wNew = 
15{0}
Offline heat flux update
Setting endTime to offlineEndTime

SIMPLE: convergence criteria
    field T	 tolerance 1e-12
    field lambda	 tolerance 1e-12
    field deltaT	 tolerance 1e-12

Ready for new computation
Ready for new offline computation
Time = 0.1

DICPCG:  Solving for T, Initial residual = 1, Final residual = 5.471506468868304e-13, No Iterations 4
ExecutionTime = 3 s  ClockTime = 9 s

Time = 0.2

DICPCG:  Solving for T, Initial residual = 0.2036896501170787, Final residual = 9.884013264059893e-14, No Iterations 4
ExecutionTime = 3 s  ClockTime = 9 s

Time = 0.3

DICPCG:  Solving for T, Initial residual = 0.1130637609422599, Final residual = 4.852102744766436e-14, No Iterations 4
ExecutionTime = 3.01 s  ClockTime = 9 s

Time = 0.4

DICPCG:  Solving for T, Initial residual = 0.07750727339542765, Final residual = 2.893513456806019e-14, No Iterations 4
ExecutionTime = 3.01 s  ClockTime = 9 s

Time = 0.5

DICPCG:  Solving for T, Initial residual = 0.05858965538520228, Final residual = 1.882138095748031e-14, No Iterations 4
ExecutionTime = 3.01 s  ClockTime = 9 s

Time = 0.6

DICPCG:  Solving for T, Initial residual = 0.04718885061473865, Final residual = 1.318145474164638e-14, No Iterations 4
ExecutionTime = 3.01 s  ClockTime = 9 s

Time = 0.7

DICPCG:  Solving for T, Initial residual = 0.03951584274256602, Final residual = 9.792893977694304e-15, No Iterations 4
ExecutionTime = 3.01 s  ClockTime = 9 s

Time = 0.8

DICPCG:  Solving for T, Initial residual = 0.03400308628165905, Final residual = 7.645332757765747e-15, No Iterations 4
ExecutionTime = 3.01 s  ClockTime = 9 s

Time = 0.9

DICPCG:  Solving for T, Initial residual = 0.02985615894628939, Final residual = 6.1866798825184e-15, No Iterations 4
ExecutionTime = 3.02 s  ClockTime = 9 s

Time = 1

DICPCG:  Solving for T, Initial residual = 0.02667708867528404, Final residual = 5.153215481073678e-15, No Iterations 4
ExecutionTime = 3.03 s  ClockTime = 9 s

debug : timeI = 10
Direct computation ENDED

--------------------------------------

Base 3 of 15

--------------------------------------


SIMPLE: convergence criteria
    field T	 tolerance 1e-12
    field lambda	 tolerance 1e-12
    field deltaT	 tolerance 1e-12

Ready for new computation
debug : wOld = 

15
(
0
0
1
0
0
0
0
0
0
0
0
0
0
0
0
)

debug : wNew = 
15{0}
Offline heat flux update
Setting endTime to offlineEndTime

SIMPLE: convergence criteria
    field T	 tolerance 1e-12
    field lambda	 tolerance 1e-12
    field deltaT	 tolerance 1e-12

Ready for new computation
Ready for new offline computation
Time = 0.1

DICPCG:  Solving for T, Initial residual = 1, Final residual = 5.47150647974384e-13, No Iterations 4
ExecutionTime = 3.14 s  ClockTime = 10 s

Time = 0.2

DICPCG:  Solving for T, Initial residual = 0.2036896499792902, Final residual = 9.884013278593097e-14, No Iterations 4
ExecutionTime = 3.14 s  ClockTime = 10 s

Time = 0.3

DICPCG:  Solving for T, Initial residual = 0.1130637608528451, Final residual = 4.852102751902828e-14, No Iterations 4
ExecutionTime = 3.14 s  ClockTime = 10 s

Time = 0.4

DICPCG:  Solving for T, Initial residual = 0.07750727333836367, Final residual = 2.89351346117062e-14, No Iterations 4
ExecutionTime = 3.15 s  ClockTime = 10 s

Time = 0.5

DICPCG:  Solving for T, Initial residual = 0.05858965534237412, Final residual = 1.882138098650155e-14, No Iterations 4
ExecutionTime = 3.15 s  ClockTime = 10 s

Time = 0.6

DICPCG:  Solving for T, Initial residual = 0.04718885060532042, Final residual = 1.31814547627595e-14, No Iterations 4
ExecutionTime = 3.15 s  ClockTime = 10 s

Time = 0.7

DICPCG:  Solving for T, Initial residual = 0.03951584273890713, Final residual = 9.79289399369161e-15, No Iterations 4
ExecutionTime = 3.15 s  ClockTime = 10 s

Time = 0.8

DICPCG:  Solving for T, Initial residual = 0.03400308631191482, Final residual = 7.645332771274386e-15, No Iterations 4
ExecutionTime = 3.16 s  ClockTime = 10 s

Time = 0.9

DICPCG:  Solving for T, Initial residual = 0.02985615900662448, Final residual = 6.186679893078163e-15, No Iterations 4
ExecutionTime = 3.16 s  ClockTime = 10 s

Time = 1

DICPCG:  Solving for T, Initial residual = 0.02667708873162277, Final residual = 5.153215489579602e-15, No Iterations 4
ExecutionTime = 3.16 s  ClockTime = 10 s

debug : timeI = 10
Direct computation ENDED

--------------------------------------

Base 4 of 15

--------------------------------------


SIMPLE: convergence criteria
    field T	 tolerance 1e-12
    field lambda	 tolerance 1e-12
    field deltaT	 tolerance 1e-12

Ready for new computation
debug : wOld = 

15
(
0
0
0
1
0
0
0
0
0
0
0
0
0
0
0
)

debug : wNew = 
15{0}
Offline heat flux update
Setting endTime to offlineEndTime

SIMPLE: convergence criteria
    field T	 tolerance 1e-12
    field lambda	 tolerance 1e-12
    field deltaT	 tolerance 1e-12

Ready for new computation
Ready for new offline computation
Time = 0.1

DICPCG:  Solving for T, Initial residual = 1, Final residual = 5.471506472519987e-13, No Iterations 4
ExecutionTime = 3.27 s  ClockTime = 10 s

Time = 0.2

DICPCG:  Solving for T, Initial residual = 0.2036896501170791, Final residual = 9.884013270921567e-14, No Iterations 4
ExecutionTime = 3.27 s  ClockTime = 10 s

Time = 0.3

DICPCG:  Solving for T, Initial residual = 0.1130637609422599, Final residual = 4.852102748179054e-14, No Iterations 4
ExecutionTime = 3.27 s  ClockTime = 10 s

Time = 0.4

DICPCG:  Solving for T, Initial residual = 0.07750727339542793, Final residual = 2.893513458905147e-14, No Iterations 4
ExecutionTime = 3.28 s  ClockTime = 10 s

Time = 0.5

DICPCG:  Solving for T, Initial residual = 0.05858965538520226, Final residual = 1.882138097144788e-14, No Iterations 4
ExecutionTime = 3.28 s  ClockTime = 10 s

Time = 0.6

DICPCG:  Solving for T, Initial residual = 0.04718885061473854, Final residual = 1.318145475136866e-14, No Iterations 4
ExecutionTime = 3.28 s  ClockTime = 10 s

Time = 0.7

DICPCG:  Solving for T, Initial residual = 0.03951584274256597, Final residual = 9.792893985091988e-15, No Iterations 4
ExecutionTime = 3.28 s  ClockTime = 10 s

Time = 0.8

DICPCG:  Solving for T, Initial residual = 0.03400308628165914, Final residual = 7.64533276407384e-15, No Iterations 4
ExecutionTime = 3.28 s  ClockTime = 10 s

Time = 0.9

DICPCG:  Solving for T, Initial residual = 0.02985615894628944, Final residual = 6.186679886504545e-15, No Iterations 4
ExecutionTime = 3.29 s  ClockTime = 10 s

Time = 1

DICPCG:  Solving for T, Initial residual = 0.02667708867528403, Final residual = 5.153215484137171e-15, No Iterations 4
ExecutionTime = 3.29 s  ClockTime = 10 s

debug : timeI = 10
Direct computation ENDED

--------------------------------------

Base 5 of 15

--------------------------------------


SIMPLE: convergence criteria
    field T	 tolerance 1e-12
    field lambda	 tolerance 1e-12
    field deltaT	 tolerance 1e-12

Ready for new computation
debug : wOld = 

15
(
0
0
0
0
1
0
0
0
0
0
0
0
0
0
0
)

debug : wNew = 
15{0}
Offline heat flux update
Setting endTime to offlineEndTime

SIMPLE: convergence criteria
    field T	 tolerance 1e-12
    field lambda	 tolerance 1e-12
    field deltaT	 tolerance 1e-12

Ready for new computation
Ready for new offline computation
Time = 0.1

DICPCG:  Solving for T, Initial residual = 1, Final residual = 5.471506452203916e-13, No Iterations 4
ExecutionTime = 3.42 s  ClockTime = 11 s

Time = 0.2

DICPCG:  Solving for T, Initial residual = 0.2036896504354231, Final residual = 9.884013246181207e-14, No Iterations 4
ExecutionTime = 3.42 s  ClockTime = 11 s

Time = 0.3

DICPCG:  Solving for T, Initial residual = 0.1130637611488493, Final residual = 4.852102736150498e-14, No Iterations 4
ExecutionTime = 3.42 s  ClockTime = 11 s

Time = 0.4

DICPCG:  Solving for T, Initial residual = 0.07750727352727108, Final residual = 2.893513451605187e-14, No Iterations 4
ExecutionTime = 3.43 s  ClockTime = 11 s

Time = 0.5

DICPCG:  Solving for T, Initial residual = 0.05858965548415435, Final residual = 1.882138092268593e-14, No Iterations 4
ExecutionTime = 3.43 s  ClockTime = 11 s

Time = 0.6

DICPCG:  Solving for T, Initial residual = 0.04718885063649891, Final residual = 1.318145471526516e-14, No Iterations 4
ExecutionTime = 3.43 s  ClockTime = 11 s

Time = 0.7

DICPCG:  Solving for T, Initial residual = 0.0395158427471066, Final residual = 9.792893957830722e-15, No Iterations 4
ExecutionTime = 3.43 s  ClockTime = 11 s

Time = 0.8

DICPCG:  Solving for T, Initial residual = 0.03400308621175498, Final residual = 7.645332741144327e-15, No Iterations 4
ExecutionTime = 3.43 s  ClockTime = 11 s

Time = 0.9

DICPCG:  Solving for T, Initial residual = 0.0298561588068879, Final residual = 6.186679867348288e-15, No Iterations 4
ExecutionTime = 3.43 s  ClockTime = 11 s

Time = 1

DICPCG:  Solving for T, Initial residual = 0.02667708854511665, Final residual = 5.153215468511147e-15, No Iterations 4
ExecutionTime = 3.43 s  ClockTime = 11 s

debug : timeI = 10
Direct computation ENDED

--------------------------------------

Base 6 of 15

--------------------------------------


SIMPLE: convergence criteria
    field T	 tolerance 1e-12
    field lambda	 tolerance 1e-12
    field deltaT	 tolerance 1e-12

Ready for new computation
debug : wOld = 

15
(
0
0
0
0
0
1
0
0
0
0
0
0
0
0
0
)

debug : wNew = 
15{0}
Offline heat flux update
Setting endTime to offlineEndTime

SIMPLE: convergence criteria
    field T	 tolerance 1e-12
    field lambda	 tolerance 1e-12
    field deltaT	 tolerance 1e-12

Ready for new computation
Ready for new offline computation
Time = 0.1

DICPCG:  Solving for T, Initial residual = 1, Final residual = 5.471506447844381e-13, No Iterations 4
ExecutionTime = 3.57 s  ClockTime = 11 s

Time = 0.2

DICPCG:  Solving for T, Initial residual = 0.2036896504304423, Final residual = 9.88401323775105e-14, No Iterations 4
ExecutionTime = 3.57 s  ClockTime = 11 s

Time = 0.3

DICPCG:  Solving for T, Initial residual = 0.1130637611456127, Final residual = 4.852102731946613e-14, No Iterations 4
ExecutionTime = 3.57 s  ClockTime = 11 s

Time = 0.4

DICPCG:  Solving for T, Initial residual = 0.07750727352520584, Final residual = 2.893513449050136e-14, No Iterations 4
ExecutionTime = 3.58 s  ClockTime = 11 s

Time = 0.5

DICPCG:  Solving for T, Initial residual = 0.05858965548260501, Final residual = 1.882138090593869e-14, No Iterations 4
ExecutionTime = 3.58 s  ClockTime = 11 s

Time = 0.6

DICPCG:  Solving for T, Initial residual = 0.04718885063615832, Final residual = 1.318145470392509e-14, No Iterations 4
ExecutionTime = 3.58 s  ClockTime = 11 s

Time = 0.7

DICPCG:  Solving for T, Initial residual = 0.03951584276859473, Final residual = 9.792893949339845e-15, No Iterations 4
ExecutionTime = 3.59 s  ClockTime = 11 s

Time = 0.8

DICPCG:  Solving for T, Initial residual = 0.03400308621284945, Final residual = 7.645332733955492e-15, No Iterations 4
ExecutionTime = 3.59 s  ClockTime = 11 s

Time = 0.9

DICPCG:  Solving for T, Initial residual = 0.02985615880907097, Final residual = 6.186679863552881e-15, No Iterations 4
ExecutionTime = 3.6 s  ClockTime = 11 s

Time = 1

DICPCG:  Solving for T, Initial residual = 0.02667708854715608, Final residual = 5.153215465826276e-15, No Iterations 4
ExecutionTime = 3.6 s  ClockTime = 11 s

debug : timeI = 10
Direct computation ENDED

--------------------------------------

Base 7 of 15

--------------------------------------


SIMPLE: convergence criteria
    field T	 tolerance 1e-12
    field lambda	 tolerance 1e-12
    field deltaT	 tolerance 1e-12

Ready for new computation
debug : wOld = 

15
(
0
0
0
0
0
0
1
0
0
0
0
0
0
0
0
)

debug : wNew = 
15{0}
Offline heat flux update
Setting endTime to offlineEndTime

SIMPLE: convergence criteria
    field T	 tolerance 1e-12
    field lambda	 tolerance 1e-12
    field deltaT	 tolerance 1e-12

Ready for new computation
Ready for new offline computation
Time = 0.1

DICPCG:  Solving for T, Initial residual = 1, Final residual = 5.471506487543462e-13, No Iterations 4
ExecutionTime = 3.72 s  ClockTime = 12 s

Time = 0.2

DICPCG:  Solving for T, Initial residual = 0.2036896498808073, Final residual = 9.884013288984719e-14, No Iterations 4
ExecutionTime = 3.73 s  ClockTime = 12 s

Time = 0.3

DICPCG:  Solving for T, Initial residual = 0.1130637607889371, Final residual = 4.852102757044089e-14, No Iterations 4
ExecutionTime = 3.73 s  ClockTime = 12 s

Time = 0.4

DICPCG:  Solving for T, Initial residual = 0.07750727329757859, Final residual = 2.893513464335739e-14, No Iterations 4
ExecutionTime = 3.73 s  ClockTime = 12 s

Time = 0.5

DICPCG:  Solving for T, Initial residual = 0.0585896553117632, Final residual = 1.882138100773489e-14, No Iterations 4
ExecutionTime = 3.73 s  ClockTime = 12 s

Time = 0.6

DICPCG:  Solving for T, Initial residual = 0.04718885059858918, Final residual = 1.318145477860516e-14, No Iterations 4
ExecutionTime = 3.73 s  ClockTime = 12 s

Time = 0.7

DICPCG:  Solving for T, Initial residual = 0.03951584276610456, Final residual = 9.792894005814851e-15, No Iterations 4
ExecutionTime = 3.73 s  ClockTime = 12 s

Time = 0.8

DICPCG:  Solving for T, Initial residual = 0.03400308633353938, Final residual = 7.645332781631735e-15, No Iterations 4
ExecutionTime = 3.74 s  ClockTime = 12 s

Time = 0.9

DICPCG:  Solving for T, Initial residual = 0.02985615904974915, Final residual = 6.186679901733173e-15, No Iterations 4
ExecutionTime = 3.74 s  ClockTime = 12 s

Time = 1

DICPCG:  Solving for T, Initial residual = 0.02667708877189124, Final residual = 5.153215496752318e-15, No Iterations 4
ExecutionTime = 3.74 s  ClockTime = 12 s

debug : timeI = 10
Direct computation ENDED

--------------------------------------

Base 8 of 15

--------------------------------------


SIMPLE: convergence criteria
    field T	 tolerance 1e-12
    field lambda	 tolerance 1e-12
    field deltaT	 tolerance 1e-12

Ready for new computation
debug : wOld = 

15
(
0
0
0
0
0
0
0
1
0
0
0
0
0
0
0
)

debug : wNew = 
15{0}
Offline heat flux update
Setting endTime to offlineEndTime

SIMPLE: convergence criteria
    field T	 tolerance 1e-12
    field lambda	 tolerance 1e-12
    field deltaT	 tolerance 1e-12

Ready for new computation
Ready for new offline computation
Time = 0.1

DICPCG:  Solving for T, Initial residual = 1, Final residual = 5.471506498563691e-13, No Iterations 4
ExecutionTime = 3.85 s  ClockTime = 12 s

Time = 0.2

DICPCG:  Solving for T, Initial residual = 0.2036896497413333, Final residual = 9.884013303783774e-14, No Iterations 4
ExecutionTime = 3.85 s  ClockTime = 12 s

Time = 0.3

DICPCG:  Solving for T, Initial residual = 0.1130637606984225, Final residual = 4.852102764306112e-14, No Iterations 4
ExecutionTime = 3.85 s  ClockTime = 12 s

Time = 0.4

DICPCG:  Solving for T, Initial residual = 0.07750727323981108, Final residual = 2.893513468745573e-14, No Iterations 4
ExecutionTime = 3.86 s  ClockTime = 12 s

Time = 0.5

DICPCG:  Solving for T, Initial residual = 0.05858965526840831, Final residual = 1.882138103723364e-14, No Iterations 4
ExecutionTime = 3.86 s  ClockTime = 12 s

Time = 0.6

DICPCG:  Solving for T, Initial residual = 0.04718885058905489, Final residual = 1.318145480010477e-14, No Iterations 4
ExecutionTime = 3.86 s  ClockTime = 12 s

Time = 0.7

DICPCG:  Solving for T, Initial residual = 0.03951584276239819, Final residual = 9.792894022086732e-15, No Iterations 4
ExecutionTime = 3.86 s  ClockTime = 12 s

Time = 0.8

DICPCG:  Solving for T, Initial residual = 0.03400308636416683, Final residual = 7.645332795399968e-15, No Iterations 4
ExecutionTime = 3.86 s  ClockTime = 12 s

Time = 0.9

DICPCG:  Solving for T, Initial residual = 0.02985615911082572, Final residual = 6.186679912467571e-15, No Iterations 4
ExecutionTime = 3.86 s  ClockTime = 12 s

Time = 1

DICPCG:  Solving for T, Initial residual = 0.02667708882892085, Final residual = 5.153215505425258e-15, No Iterations 4
ExecutionTime = 3.86 s  ClockTime = 12 s

debug : timeI = 10
Direct computation ENDED

--------------------------------------

Base 9 of 15

--------------------------------------


SIMPLE: convergence criteria
    field T	 tolerance 1e-12
    field lambda	 tolerance 1e-12
    field deltaT	 tolerance 1e-12

Ready for new computation
debug : wOld = 

15
(
0
0
0
0
0
0
0
0
1
0
0
0
0
0
0
)

debug : wNew = 
15{0}
Offline heat flux update
Setting endTime to offlineEndTime

SIMPLE: convergence criteria
    field T	 tolerance 1e-12
    field lambda	 tolerance 1e-12
    field deltaT	 tolerance 1e-12

Ready for new computation
Ready for new offline computation
Time = 0.1

DICPCG:  Solving for T, Initial residual = 1, Final residual = 5.471506491251941e-13, No Iterations 4
ExecutionTime = 3.98 s  ClockTime = 13 s

Time = 0.2

DICPCG:  Solving for T, Initial residual = 0.2036896498808077, Final residual = 9.884013295935187e-14, No Iterations 4
ExecutionTime = 3.98 s  ClockTime = 13 s

Time = 0.3

DICPCG:  Solving for T, Initial residual = 0.113063760788937, Final residual = 4.852102760516584e-14, No Iterations 4
ExecutionTime = 3.98 s  ClockTime = 13 s

Time = 0.4

DICPCG:  Solving for T, Initial residual = 0.07750727329757877, Final residual = 2.893513466450795e-14, No Iterations 4
ExecutionTime = 3.98 s  ClockTime = 13 s

Time = 0.5

DICPCG:  Solving for T, Initial residual = 0.05858965531176306, Final residual = 1.882138102188988e-14, No Iterations 4
ExecutionTime = 3.99 s  ClockTime = 13 s

Time = 0.6

DICPCG:  Solving for T, Initial residual = 0.04718885059858924, Final residual = 1.318145478848493e-14, No Iterations 4
ExecutionTime = 3.99 s  ClockTime = 13 s

Time = 0.7

DICPCG:  Solving for T, Initial residual = 0.03951584276610456, Final residual = 9.792894013348168e-15, No Iterations 4
ExecutionTime = 3.99 s  ClockTime = 13 s

Time = 0.8

DICPCG:  Solving for T, Initial residual = 0.0340030863335395, Final residual = 7.645332788053071e-15, No Iterations 4
ExecutionTime = 3.99 s  ClockTime = 13 s

Time = 0.9

DICPCG:  Solving for T, Initial residual = 0.02985615904974906, Final residual = 6.18667990581754e-15, No Iterations 4
ExecutionTime = 3.99 s  ClockTime = 13 s

Time = 1

DICPCG:  Solving for T, Initial residual = 0.02667708877189126, Final residual = 5.15321549991036e-15, No Iterations 4
ExecutionTime = 3.99 s  ClockTime = 13 s

debug : timeI = 10
Direct computation ENDED

--------------------------------------

Base 10 of 15

--------------------------------------


SIMPLE: convergence criteria
    field T	 tolerance 1e-12
    field lambda	 tolerance 1e-12
    field deltaT	 tolerance 1e-12

Ready for new computation
debug : wOld = 

15
(
0
0
0
0
0
0
0
0
0
1
0
0
0
0
0
)

debug : wNew = 
15{0}
Offline heat flux update
Setting endTime to offlineEndTime

SIMPLE: convergence criteria
    field T	 tolerance 1e-12
    field lambda	 tolerance 1e-12
    field deltaT	 tolerance 1e-12

Ready for new computation
Ready for new offline computation
Time = 0.1

DICPCG:  Solving for T, Initial residual = 1, Final residual = 5.471506470611752e-13, No Iterations 4
ExecutionTime = 4.13 s  ClockTime = 13 s

Time = 0.2

DICPCG:  Solving for T, Initial residual = 0.2036896502030195, Final residual = 9.884013270845423e-14, No Iterations 4
ExecutionTime = 4.13 s  ClockTime = 13 s

Time = 0.3

DICPCG:  Solving for T, Initial residual = 0.1130637609980301, Final residual = 4.852102748261223e-14, No Iterations 4
ExecutionTime = 4.14 s  ClockTime = 13 s

Time = 0.4

DICPCG:  Solving for T, Initial residual = 0.07750727343102196, Final residual = 2.893513459026004e-14, No Iterations 4
ExecutionTime = 4.14 s  ClockTime = 13 s

Time = 0.5

DICPCG:  Solving for T, Initial residual = 0.05858965541191614, Final residual = 1.882138097236459e-14, No Iterations 4
ExecutionTime = 4.15 s  ClockTime = 13 s

Time = 0.6

DICPCG:  Solving for T, Initial residual = 0.04718885062061358, Final residual = 1.318145475177191e-14, No Iterations 4
ExecutionTime = 4.15 s  ClockTime = 13 s

Time = 0.7

DICPCG:  Solving for T, Initial residual = 0.03951584276975454, Final residual = 9.792893985588254e-15, No Iterations 4
ExecutionTime = 4.16 s  ClockTime = 13 s

Time = 0.8

DICPCG:  Solving for T, Initial residual = 0.03400308626278716, Final residual = 7.645332764707878e-15, No Iterations 4
ExecutionTime = 4.16 s  ClockTime = 13 s

Time = 0.9

DICPCG:  Solving for T, Initial residual = 0.02985615890865511, Final residual = 6.18667988635021e-15, No Iterations 4
ExecutionTime = 4.16 s  ClockTime = 13 s

Time = 1

DICPCG:  Solving for T, Initial residual = 0.02667708864014364, Final residual = 5.153215484032801e-15, No Iterations 4
ExecutionTime = 4.16 s  ClockTime = 13 s

debug : timeI = 10
Direct computation ENDED

--------------------------------------

Base 11 of 15

--------------------------------------


SIMPLE: convergence criteria
    field T	 tolerance 1e-12
    field lambda	 tolerance 1e-12
    field deltaT	 tolerance 1e-12

Ready for new computation
debug : wOld = 

15
(
0
0
0
0
0
0
0
0
0
0
1
0
0
0
0
)

debug : wNew = 
15{0}
Offline heat flux update
Setting endTime to offlineEndTime

SIMPLE: convergence criteria
    field T	 tolerance 1e-12
    field lambda	 tolerance 1e-12
    field deltaT	 tolerance 1e-12

Ready for new computation
Ready for new offline computation
Time = 0.1

DICPCG:  Solving for T, Initial residual = 1, Final residual = 5.471506446483545e-13, No Iterations 4
ExecutionTime = 4.31 s  ClockTime = 14 s

Time = 0.2

DICPCG:  Solving for T, Initial residual = 0.2036896504881597, Final residual = 9.884013237584777e-14, No Iterations 4
ExecutionTime = 4.31 s  ClockTime = 14 s

Time = 0.3

DICPCG:  Solving for T, Initial residual = 0.1130637611830709, Final residual = 4.852102731963815e-14, No Iterations 4
ExecutionTime = 4.31 s  ClockTime = 14 s

Time = 0.4

DICPCG:  Solving for T, Initial residual = 0.07750727354911117, Final residual = 2.893513449093636e-14, No Iterations 4
ExecutionTime = 4.31 s  ClockTime = 14 s

Time = 0.5

DICPCG:  Solving for T, Initial residual = 0.05858965550054708, Final residual = 1.882138090648486e-14, No Iterations 4
ExecutionTime = 4.31 s  ClockTime = 14 s

Time = 0.6

DICPCG:  Solving for T, Initial residual = 0.0471888506401042, Final residual = 1.318145470427352e-14, No Iterations 4
ExecutionTime = 4.31 s  ClockTime = 14 s

Time = 0.7

DICPCG:  Solving for T, Initial residual = 0.03951584276270201, Final residual = 9.792893949779327e-15, No Iterations 4
ExecutionTime = 4.32 s  ClockTime = 14 s

Time = 0.8

DICPCG:  Solving for T, Initial residual = 0.034003086200175, Final residual = 7.645332734480602e-15, No Iterations 4
ExecutionTime = 4.32 s  ClockTime = 14 s

Time = 0.9

DICPCG:  Solving for T, Initial residual = 0.02985615878379579, Final residual = 6.186679863712258e-15, No Iterations 4
ExecutionTime = 4.32 s  ClockTime = 14 s

Time = 1

DICPCG:  Solving for T, Initial residual = 0.02667708852355439, Final residual = 5.15321546603531e-15, No Iterations 4
ExecutionTime = 4.32 s  ClockTime = 14 s

debug : timeI = 10
Direct computation ENDED

--------------------------------------

Base 12 of 15

--------------------------------------


SIMPLE: convergence criteria
    field T	 tolerance 1e-12
    field lambda	 tolerance 1e-12
    field deltaT	 tolerance 1e-12

Ready for new computation
debug : wOld = 

15
(
0
0
0
0
0
0
0
0
0
0
0
1
0
0
0
)

debug : wNew = 
15{0}
Offline heat flux update
Setting endTime to offlineEndTime

SIMPLE: convergence criteria
    field T	 tolerance 1e-12
    field lambda	 tolerance 1e-12
    field deltaT	 tolerance 1e-12

Ready for new computation
Ready for new offline computation
Time = 0.1

DICPCG:  Solving for T, Initial residual = 1, Final residual = 5.471506486148353e-13, No Iterations 4
ExecutionTime = 4.43 s  ClockTime = 14 s

Time = 0.2

DICPCG:  Solving for T, Initial residual = 0.2036896499401886, Final residual = 9.884013288815295e-14, No Iterations 4
ExecutionTime = 4.43 s  ClockTime = 14 s

Time = 0.3

DICPCG:  Solving for T, Initial residual = 0.1130637608274667, Final residual = 4.852102757077538e-14, No Iterations 4
ExecutionTime = 4.43 s  ClockTime = 14 s

Time = 0.4

DICPCG:  Solving for T, Initial residual = 0.07750727332216795, Final residual = 2.893513464364922e-14, No Iterations 4
ExecutionTime = 4.43 s  ClockTime = 14 s

Time = 0.5

DICPCG:  Solving for T, Initial residual = 0.05858965533021981, Final residual = 1.882138100824924e-14, No Iterations 4
ExecutionTime = 4.44 s  ClockTime = 14 s

Time = 0.6

DICPCG:  Solving for T, Initial residual = 0.0471888506026477, Final residual = 1.318145477895543e-14, No Iterations 4
ExecutionTime = 4.44 s  ClockTime = 14 s

Time = 0.7

DICPCG:  Solving for T, Initial residual = 0.03951584275946401, Final residual = 9.792894006249151e-15, No Iterations 4
ExecutionTime = 4.44 s  ClockTime = 14 s

Time = 0.8

DICPCG:  Solving for T, Initial residual = 0.03400308632050064, Final residual = 7.645332782143722e-15, No Iterations 4
ExecutionTime = 4.44 s  ClockTime = 14 s

Time = 0.9

DICPCG:  Solving for T, Initial residual = 0.0298561590237472, Final residual = 6.186679901912971e-15, No Iterations 4
ExecutionTime = 4.44 s  ClockTime = 14 s

Time = 1

DICPCG:  Solving for T, Initial residual = 0.02667708874761133, Final residual = 5.153215496997145e-15, No Iterations 4
ExecutionTime = 4.44 s  ClockTime = 14 s

debug : timeI = 10
Direct computation ENDED

--------------------------------------

Base 13 of 15

--------------------------------------


SIMPLE: convergence criteria
    field T	 tolerance 1e-12
    field lambda	 tolerance 1e-12
    field deltaT	 tolerance 1e-12

Ready for new computation
debug : wOld = 

15
(
0
0
0
0
0
0
0
0
0
0
0
0
1
0
0
)

debug : wNew = 
15{0}
Offline heat flux update
Setting endTime to offlineEndTime

SIMPLE: convergence criteria
    field T	 tolerance 1e-12
    field lambda	 tolerance 1e-12
    field deltaT	 tolerance 1e-12

Ready for new computation
Ready for new offline computation
Time = 0.1

DICPCG:  Solving for T, Initial residual = 1, Final residual = 5.471506497154519e-13, No Iterations 4
ExecutionTime = 4.58 s  ClockTime = 15 s

Time = 0.2

DICPCG:  Solving for T, Initial residual = 0.2036896498011414, Final residual = 9.884013303589401e-14, No Iterations 4
ExecutionTime = 4.58 s  ClockTime = 15 s

Time = 0.3

DICPCG:  Solving for T, Initial residual = 0.1130637607372345, Final residual = 4.85210276430369e-14, No Iterations 4
ExecutionTime = 4.59 s  ClockTime = 15 s

Time = 0.4

DICPCG:  Solving for T, Initial residual = 0.07750727326458223, Final residual = 2.893513468787547e-14, No Iterations 4
ExecutionTime = 4.6 s  ClockTime = 15 s

Time = 0.5

DICPCG:  Solving for T, Initial residual = 0.05858965528699889, Final residual = 1.88213810377261e-14, No Iterations 4
ExecutionTime = 4.6 s  ClockTime = 15 s

Time = 0.6

DICPCG:  Solving for T, Initial residual = 0.04718885059314253, Final residual = 1.318145480043126e-14, No Iterations 4
ExecutionTime = 4.6 s  ClockTime = 15 s

Time = 0.7

DICPCG:  Solving for T, Initial residual = 0.03951584275576892, Final residual = 9.792894022531641e-15, No Iterations 4
ExecutionTime = 4.6 s  ClockTime = 15 s

Time = 0.8

DICPCG:  Solving for T, Initial residual = 0.03400308635103364, Final residual = 7.645332795874135e-15, No Iterations 4
ExecutionTime = 4.6 s  ClockTime = 15 s

Time = 0.9

DICPCG:  Solving for T, Initial residual = 0.02985615908463608, Final residual = 6.18667991266172e-15, No Iterations 4
ExecutionTime = 4.6 s  ClockTime = 15 s

Time = 1

DICPCG:  Solving for T, Initial residual = 0.02667708880446664, Final residual = 5.153215505675516e-15, No Iterations 4
ExecutionTime = 4.6 s  ClockTime = 15 s

debug : timeI = 10
Direct computation ENDED

--------------------------------------

Base 14 of 15

--------------------------------------


SIMPLE: convergence criteria
    field T	 tolerance 1e-12
    field lambda	 tolerance 1e-12
    field deltaT	 tolerance 1e-12

Ready for new computation
debug : wOld = 

15
(
0
0
0
0
0
0
0
0
0
0
0
0
0
1
0
)

debug : wNew = 
15{0}
Offline heat flux update
Setting endTime to offlineEndTime

SIMPLE: convergence criteria
    field T	 tolerance 1e-12
    field lambda	 tolerance 1e-12
    field deltaT	 tolerance 1e-12

Ready for new computation
Ready for new offline computation
Time = 0.1

DICPCG:  Solving for T, Initial residual = 1, Final residual = 5.471506489810338e-13, No Iterations 4
ExecutionTime = 4.72 s  ClockTime = 15 s

Time = 0.2

DICPCG:  Solving for T, Initial residual = 0.2036896499401893, Final residual = 9.884013295739127e-14, No Iterations 4
ExecutionTime = 4.72 s  ClockTime = 15 s

Time = 0.3

DICPCG:  Solving for T, Initial residual = 0.1130637608274666, Final residual = 4.852102760499629e-14, No Iterations 4
ExecutionTime = 4.72 s  ClockTime = 15 s

Time = 0.4

DICPCG:  Solving for T, Initial residual = 0.07750727332216795, Final residual = 2.893513466480394e-14, No Iterations 4
ExecutionTime = 4.73 s  ClockTime = 15 s

Time = 0.5

DICPCG:  Solving for T, Initial residual = 0.05858965533021988, Final residual = 1.882138102228831e-14, No Iterations 4
ExecutionTime = 4.73 s  ClockTime = 15 s

Time = 0.6

DICPCG:  Solving for T, Initial residual = 0.04718885060264776, Final residual = 1.318145478878893e-14, No Iterations 4
ExecutionTime = 4.73 s  ClockTime = 15 s

Time = 0.7

DICPCG:  Solving for T, Initial residual = 0.03951584275946404, Final residual = 9.79289401375361e-15, No Iterations 4
ExecutionTime = 4.73 s  ClockTime = 15 s

Time = 0.8

DICPCG:  Solving for T, Initial residual = 0.03400308632050072, Final residual = 7.645332788576958e-15, No Iterations 4
ExecutionTime = 4.73 s  ClockTime = 15 s

Time = 0.9

DICPCG:  Solving for T, Initial residual = 0.02985615902374712, Final residual = 6.186679906033264e-15, No Iterations 4
ExecutionTime = 4.74 s  ClockTime = 15 s

Time = 1

DICPCG:  Solving for T, Initial residual = 0.02667708874761129, Final residual = 5.153215500175988e-15, No Iterations 4
ExecutionTime = 4.74 s  ClockTime = 15 s

debug : timeI = 10
Direct computation ENDED

--------------------------------------

Base 15 of 15

--------------------------------------


SIMPLE: convergence criteria
    field T	 tolerance 1e-12
    field lambda	 tolerance 1e-12
    field deltaT	 tolerance 1e-12

Ready for new computation
debug : wOld = 

15
(
0
0
0
0
0
0
0
0
0
0
0
0
0
0
1
)

debug : wNew = 
15{0}
Offline heat flux update
Setting endTime to offlineEndTime

SIMPLE: convergence criteria
    field T	 tolerance 1e-12
    field lambda	 tolerance 1e-12
    field deltaT	 tolerance 1e-12

Ready for new computation
Ready for new offline computation
Time = 0.1

DICPCG:  Solving for T, Initial residual = 1, Final residual = 5.471506469243286e-13, No Iterations 4
ExecutionTime = 4.86 s  ClockTime = 16 s

Time = 0.2

DICPCG:  Solving for T, Initial residual = 0.2036896502614247, Final residual = 9.884013270623874e-14, No Iterations 4
ExecutionTime = 4.86 s  ClockTime = 16 s

Time = 0.3

DICPCG:  Solving for T, Initial residual = 0.1130637610359303, Final residual = 4.852102748260315e-14, No Iterations 4
ExecutionTime = 4.86 s  ClockTime = 16 s

Time = 0.4

DICPCG:  Solving for T, Initial residual = 0.07750727345520927, Final residual = 2.893513459043875e-14, No Iterations 4
ExecutionTime = 4.86 s  ClockTime = 16 s

Time = 0.5

DICPCG:  Solving for T, Initial residual = 0.05858965543006976, Final residual = 1.882138097273023e-14, No Iterations 4
ExecutionTime = 4.86 s  ClockTime = 16 s

Time = 0.6

DICPCG:  Solving for T, Initial residual = 0.04718885062460559, Final residual = 1.318145475209045e-14, No Iterations 4
ExecutionTime = 4.86 s  ClockTime = 16 s

Time = 0.7

DICPCG:  Solving for T, Initial residual = 0.03951584276331427, Final residual = 9.79289398600756e-15, No Iterations 4
ExecutionTime = 4.86 s  ClockTime = 16 s

Time = 0.8

DICPCG:  Solving for T, Initial residual = 0.03400308624996311, Final residual = 7.645332765220396e-15, No Iterations 4
ExecutionTime = 4.87 s  ClockTime = 16 s

Time = 0.9

DICPCG:  Solving for T, Initial residual = 0.02985615888308217, Final residual = 6.186679886578693e-15, No Iterations 4
ExecutionTime = 4.87 s  ClockTime = 16 s

Time = 1

DICPCG:  Solving for T, Initial residual = 0.02667708861626428, Final residual = 5.153215484295407e-15, No Iterations 4
ExecutionTime = 4.87 s  ClockTime = 16 s

debug : timeI = 10
Direct computation ENDED
Offline for NEW time base

--------------------------------------

Base 1 of 15

--------------------------------------


SIMPLE: convergence criteria
    field T	 tolerance 1e-12
    field lambda	 tolerance 1e-12
    field deltaT	 tolerance 1e-12

Ready for new computation
debug : wOld = 
15{0}
debug : wNew = 

15
(
1
0
0
0
0
0
0
0
0
0
0
0
0
0
0
)

Offline heat flux update
Setting endTime to offlineEndTime

SIMPLE: convergence criteria
    field T	 tolerance 1e-12
    field lambda	 tolerance 1e-12
    field deltaT	 tolerance 1e-12

Ready for new computation
Ready for new offline computation
Time = 0.1

DICPCG:  Solving for T, Initial residual = 1, Final residual = 5.471507401808403e-13, No Iterations 4
ExecutionTime = 4.98 s  ClockTime = 16 s

Time = 0.2

DICPCG:  Solving for T, Initial residual = 0.2036896380263633, Final residual = 9.884014303858541e-14, No Iterations 4
ExecutionTime = 4.98 s  ClockTime = 16 s

Time = 0.3

DICPCG:  Solving for T, Initial residual = 0.1130637546315828, Final residual = 4.852103194732621e-14, No Iterations 4
ExecutionTime = 4.98 s  ClockTime = 16 s

Time = 0.4

DICPCG:  Solving for T, Initial residual = 0.07750727032052884, Final residual = 2.893513694817569e-14, No Iterations 4
ExecutionTime = 4.98 s  ClockTime = 16 s

Time = 0.5

DICPCG:  Solving for T, Initial residual = 0.05858965484641607, Final residual = 1.882138228566334e-14, No Iterations 4
ExecutionTime = 4.98 s  ClockTime = 16 s

Time = 0.6

DICPCG:  Solving for T, Initial residual = 0.0471888520126869, Final residual = 1.318145553509288e-14, No Iterations 4
ExecutionTime = 4.99 s  ClockTime = 16 s

Time = 0.7

DICPCG:  Solving for T, Initial residual = 0.03951584603857679, Final residual = 9.792894433369012e-15, No Iterations 4
ExecutionTime = 4.99 s  ClockTime = 16 s

Time = 0.8

DICPCG:  Solving for T, Initial residual = 0.03400308950050901, Final residual = 7.645333044275461e-15, No Iterations 4
ExecutionTime = 4.99 s  ClockTime = 16 s

Time = 0.9

DICPCG:  Solving for T, Initial residual = 0.02985615991570992, Final residual = 6.18668002169138e-15, No Iterations 4
ExecutionTime = 4.99 s  ClockTime = 16 s

Time = 1

DICPCG:  Solving for T, Initial residual = 0.02667708898195089, Final residual = 5.15321552568443e-15, No Iterations 4
ExecutionTime = 4.99 s  ClockTime = 16 s

debug : timeI = 10
Direct computation ENDED
debug : Ttime.size() = 10

--------------------------------------

Base 2 of 15

--------------------------------------


SIMPLE: convergence criteria
    field T	 tolerance 1e-12
    field lambda	 tolerance 1e-12
    field deltaT	 tolerance 1e-12

Ready for new computation
debug : wOld = 
15{0}
debug : wNew = 

15
(
0
1
0
0
0
0
0
0
0
0
0
0
0
0
0
)

Offline heat flux update
Setting endTime to offlineEndTime

SIMPLE: convergence criteria
    field T	 tolerance 1e-12
    field lambda	 tolerance 1e-12
    field deltaT	 tolerance 1e-12

Ready for new computation
Ready for new offline computation
Time = 0.1

DICPCG:  Solving for T, Initial residual = 1, Final residual = 5.471507405705882e-13, No Iterations 4
ExecutionTime = 5.11 s  ClockTime = 17 s

Time = 0.2

DICPCG:  Solving for T, Initial residual = 0.2036896379139451, Final residual = 9.884014313550228e-14, No Iterations 4
ExecutionTime = 5.11 s  ClockTime = 17 s

Time = 0.3

DICPCG:  Solving for T, Initial residual = 0.1130637545192674, Final residual = 4.85210320161602e-14, No Iterations 4
ExecutionTime = 5.11 s  ClockTime = 17 s

Time = 0.4

DICPCG:  Solving for T, Initial residual = 0.07750727020753091, Final residual = 2.893513700375063e-14, No Iterations 4
ExecutionTime = 5.11 s  ClockTime = 17 s

Time = 0.5

DICPCG:  Solving for T, Initial residual = 0.05858965475706863, Final residual = 1.882138233279978e-14, No Iterations 4
ExecutionTime = 5.11 s  ClockTime = 17 s

Time = 0.6

DICPCG:  Solving for T, Initial residual = 0.04718885192940968, Final residual = 1.318145557649103e-14, No Iterations 4
ExecutionTime = 5.11 s  ClockTime = 17 s

Time = 0.7

DICPCG:  Solving for T, Initial residual = 0.03951584603328121, Final residual = 9.79289447028974e-15, No Iterations 4
ExecutionTime = 5.11 s  ClockTime = 17 s

Time = 0.8

DICPCG:  Solving for T, Initial residual = 0.03400308950654298, Final residual = 7.645333079246291e-15, No Iterations 4
ExecutionTime = 5.12 s  ClockTime = 17 s

Time = 0.9

DICPCG:  Solving for T, Initial residual = 0.02985616011257458, Final residual = 6.186680052893942e-15, No Iterations 4
ExecutionTime = 5.12 s  ClockTime = 17 s

Time = 1

DICPCG:  Solving for T, Initial residual = 0.02667708918607547, Final residual = 5.153215553933529e-15, No Iterations 4
ExecutionTime = 5.12 s  ClockTime = 17 s

debug : timeI = 10
Direct computation ENDED
debug : Ttime.size() = 10

--------------------------------------

Base 3 of 15

--------------------------------------


SIMPLE: convergence criteria
    field T	 tolerance 1e-12
    field lambda	 tolerance 1e-12
    field deltaT	 tolerance 1e-12

Ready for new computation
debug : wOld = 
15{0}
debug : wNew = 

15
(
0
0
1
0
0
0
0
0
0
0
0
0
0
0
0
)

Offline heat flux update
Setting endTime to offlineEndTime

SIMPLE: convergence criteria
    field T	 tolerance 1e-12
    field lambda	 tolerance 1e-12
[...]
1.613403622671625e-10 1.553424589423434e-10 1.539469359816982e-10 1.558735329175813e-10 1.597731535439596e-10 1.598610275815344e-10 1.538110306943236e-10 1.524028637231552e-10 1.543463592884273e-10 1.582796475016912e-10 1.615552806112343e-10 1.555640715255742e-10 1.541697475705434e-10 1.560930108044478e-10 1.599872930159673e-10
1.669489109984201e-10 1.601268261230152e-10 1.582231711920409e-10 1.594958323979668e-10 1.630557321992933e-10 1.654829412347012e-10 1.586034418268694e-10 1.566827667257171e-10 1.579656117652079e-10 1.615552806112343e-10 1.672538561127503e-10 1.604424361052442e-10  1.58541338843279e-10 1.598104537525841e-10 1.633633855407368e-10
1.601424019754648e-10 1.537588945130349e-10 1.520526984331839e-10 1.534615020947338e-10 1.570002838388548e-10 1.587338116374093e-10  1.52296721875057e-10 1.505753880452275e-10 1.519957349573476e-10 1.555640715255742e-10 1.604424361052442e-10 1.540692986020227e-10 1.523655249275803e-10  1.53770704012367e-10 1.573025566488827e-10
1.582424312757975e-10 1.520563778342124e-10 1.504615348900762e-10 1.519968557985238e-10 1.555882926506951e-10 1.568470431392553e-10 1.506091095848423e-10 1.490001967814808e-10 1.505482994297185e-10 1.541697475705434e-10  1.58541338843279e-10 1.523655249275803e-10  1.50773026164419e-10 1.523046376515132e-10 1.558891187746463e-10
1.595100196580498e-10 1.534601305206835e-10 1.519918222393543e-10 1.537588948726652e-10 1.575243668240225e-10 1.580957137139845e-10 1.519950580029635e-10  1.50513899048218e-10 1.522959895476412e-10 1.560930108044478e-10 1.598104537525841e-10 1.537707040123669e-10 1.523046376515132e-10 1.540678205433536e-10 1.578262158821862e-10
1.630597787398518e-10 1.569888143099927e-10 1.555731936648524e-10 1.575143381485636e-10 1.614529640489986e-10 1.616077162525251e-10 1.554857234034598e-10 1.540577624098282e-10 1.560155819545707e-10 1.599872930159673e-10 1.633633855407368e-10 1.573025566488827e-10 1.558891187746463e-10 1.578262158821862e-10  1.61757629155947e-10
New weights = 

15
(
-16212904449.69604
-11730595252.51519
21376380040.34872
-8851619374.191416
-16983781614.49918
30357634736.91552
0
-6127382096.997074
1055572470.210883
32073340696.76038
29304608952.62505
-193282336409.0779
257337549272.9517
-175959714224.2556
56423346752.74403
)

debug : wOld = 

15
(
7261390827.162259
5719544220.601402
-10144829802.9836
4217639016.240191
7659178462.638398
-13747916189.92652
0
2618068645.544947
-210280723.4151316
-14706075236.11047
-13245116470.56445
87378391259.99953
-116251654741.7256
79428731993.73077
-25423162561.05709
)

debug : wNew = 

15
(
-16212904449.69604
-11730595252.51519
21376380040.34872
-8851619374.191416
-16983781614.49918
30357634736.91552
0
-6127382096.997074
1055572470.210883
32073340696.76038
29304608952.62505
-193282336409.0779
257337549272.9517
-175959714224.2556
56423346752.74403
)

Online heat flux update
In between the timestep 91 and 101
Setting endTime to offlineEndTime

SIMPLE: convergence criteria
    field T	 tolerance 1e-12
    field lambda	 tolerance 1e-12
    field deltaT	 tolerance 1e-12

Ready for new computation
Ready for new offline computation
Time = 0.1

realTimeI = 91
DICPCG:  Solving for T, Initial residual = 0.4033287375131357, Final residual = 3.217755111557732e-13, No Iterations 4
ExecutionTime = 10.05 s  ClockTime = 33 s

Time = 0.2

realTimeI = 92
DICPCG:  Solving for T, Initial residual = 0.1754951434980024, Final residual = 1.07069559877049e-13, No Iterations 4
ExecutionTime = 10.07 s  ClockTime = 33 s

Time = 0.3

realTimeI = 93
DICPCG:  Solving for T, Initial residual = 0.07812707962521016, Final residual = 2.653833887663203e-14, No Iterations 4
ExecutionTime = 10.1 s  ClockTime = 33 s

Time = 0.4

realTimeI = 94
DICPCG:  Solving for T, Initial residual = 0.07264397820295167, Final residual = 2.821886239910729e-14, No Iterations 4
ExecutionTime = 10.12 s  ClockTime = 33 s

Time = 0.5

realTimeI = 95
DICPCG:  Solving for T, Initial residual = 0.09489324121289307, Final residual = 3.354780511312308e-14, No Iterations 4
ExecutionTime = 10.14 s  ClockTime = 33 s

Time = 0.6

realTimeI = 96
DICPCG:  Solving for T, Initial residual = 0.1254299452460188, Final residual = 7.448565863272834e-14, No Iterations 4
ExecutionTime = 10.16 s  ClockTime = 33 s

Time = 0.7

realTimeI = 97
DICPCG:  Solving for T, Initial residual = 0.2078693343421902, Final residual = 1.350972719615504e-13, No Iterations 4
ExecutionTime = 10.18 s  ClockTime = 33 s

Time = 0.8

realTimeI = 98
DICPCG:  Solving for T, Initial residual = 0.2857093778838196, Final residual = 1.863516867250417e-13, No Iterations 4
ExecutionTime = 10.2 s  ClockTime = 33 s

Time = 0.9

realTimeI = 99
DICPCG:  Solving for T, Initial residual = 0.2611066739044095, Final residual = 1.649867602331958e-13, No Iterations 4
ExecutionTime = 10.22 s  ClockTime = 33 s

Time = 1

realTimeI = 100
DICPCG:  Solving for T, Initial residual = 0.1799304515156717, Final residual = 1.088158626173648e-13, No Iterations 4
ExecutionTime = 10.24 s  ClockTime = 33 s

debug : Ttime.size() = 10
Tcomp = 
628.1448402245255 609.2570288864712 602.6109441030799 609.2564484430329 628.1451871345588 661.1323822457293 642.2410081846858 635.5996879458692 642.2420930675362 661.1317210348136 694.5457781914199 675.6538403693048 669.0154962819399 675.6532600903892 694.5461314222462
TmeasShort = 
628.1459277517196 609.2556977063531 602.6134730506784 609.2556977067819 628.1459277523057 661.1324143240947 642.2421842787321 635.5999596231067 642.2421842791927 661.1324143248596 694.5459496334259 675.6557195885383 669.0134949329142 675.6557195889801 694.5459496341582
J = 0.002552346580533152
End

debug : g.size() = 101
debug : gTrue.size() = 101
debug : Ttrue.size() = 101
debug : timeSteps.size() = 101
######### Reading the Data for Treconstructed #########
  1% [|                                                           ]  2% [|                                                           ]  3% [||                                                          ]  4% [||                                                          ]  5% [|||                                                         ]  6% [||||                                                        ]  7% [||||                                                        ]  8% [|||||                                                       ]  9% [|||||                                                       ] 10% [||||||                                                      ] 11% [||||||                                                      ] 12% [|||||||                                                     ] 13% [||||||||                                                    ] 14% [||||||||                                                    ] 15% [|||||||||                                                   ] 16% [|||||||||                                                   ] 17% [||||||||||                                                  ] 18% [|||||||||||                                                 ] 19% [|||||||||||                                                 ] 20% [||||||||||||                                                ] 21% [||||||||||||                                                ] 22% [|||||||||||||                                               ] 23% [|||||||||||||                                               ] 24% [||||||||||||||                                              ] 25% [|||||||||||||||                                             ] 26% [|||||||||||||||                                             ] 27% [||||||||||||||||                                            ] 28% [||||||||||||||||                                            ] 29% [|||||||||||||||||                                           ] 30% [||||||||||||||||||                                          ] 31% [||||||||||||||||||                                          ] 32% [|||||||||||||||||||                                         ] 33% [|||||||||||||||||||                                         ] 33% [||||||||||||||||||||                                        ] 34% [||||||||||||||||||||                                        ] 35% [|||||||||||||||||||||                                       ] 36% [||||||||||||||||||||||                                      ] 37% [||||||||||||||||||||||                                      ] 38% [|||||||||||||||||||||||                                     ] 39% [|||||||||||||||||||||||                                     ] 40% [||||||||||||||||||||||||                                    ] 41% [|||||||||||||||||||||||||                                   ] 42% [|||||||||||||||||||||||||                                   ] 43% [||||||||||||||||||||||||||                                  ] 44% [||||||||||||||||||||||||||                                  ] 45% [|||||||||||||||||||||||||||                                 ] 46% [|||||||||||||||||||||||||||                                 ] 47% [||||||||||||||||||||||||||||                                ] 48% [|||||||||||||||||||||||||||||                               ] 49% [|||||||||||||||||||||||||||||                               ] 50% [||||||||||||||||||||||||||||||                              ] 51% [||||||||||||||||||||||||||||||                              ] 52% [|||||||||||||||||||||||||||||||                             ] 53% [||||||||||||||||||||||||||||||||                            ] 54% [||||||||||||||||||||||||||||||||                            ] 55% [|||||||||||||||||||||||||||||||||                           ] 56% [|||||||||||||||||||||||||||||||||                           ] 57% [||||||||||||||||||||||||||||||||||                          ] 58% [||||||||||||||||||||||||||||||||||                          ] 59% [|||||||||||||||||||||||||||||||||||                         ] 60% [||||||||||||||||||||||||||||||||||||                        ] 61% [||||||||||||||||||||||||||||||||||||                        ] 62% [|||||||||||||||||||||||||||||||||||||                       ] 63% [|||||||||||||||||||||||||||||||||||||                       ] 64% [||||||||||||||||||||||||||||||||||||||                      ] 65% [|||||||||||||||||||||||||||||||||||||||                     ] 66% [|||||||||||||||||||||||||||||||||||||||                     ] 66% [||||||||||||||||||||||||||||||||||||||||                    ] 67% [||||||||||||||||||||||||||||||||||||||||                    ] 68% [|||||||||||||||||||||||||||||||||||||||||                   ] 69% [|||||||||||||||||||||||||||||||||||||||||                   ] 70% [||||||||||||||||||||||||||||||||||||||||||                  ] 71% [|||||||||||||||||||||||||||||||||||||||||||                 ] 72% [|||||||||||||||||||||||||||||||||||||||||||                 ] 73% [||||||||||||||||||||||||||||||||||||||||||||                ] 74% [||||||||||||||||||||||||||||||||||||||||||||                ] 75% [|||||||||||||||||||||||||||||||||||||||||||||               ] 76% [||||||||||||||||||||||||||||||||||||||||||||||              ] 77% [||||||||||||||||||||||||||||||||||||||||||||||              ] 78% [|||||||||||||||||||||||||||||||||||||||||||||||             ] 79% [|||||||||||||||||||||||||||||||||||||||||||||||             ] 80% [||||||||||||||||||||||||||||||||||||||||||||||||            ] 81% [||||||||||||||||||||||||||||||||||||||||||||||||            ] 82% [|||||||||||||||||||||||||||||||||||||||||||||||||           ] 83% [||||||||||||||||||||||||||||||||||||||||||||||||||          ] 84% [||||||||||||||||||||||||||||||||||||||||||||||||||          ] 85% [|||||||||||||||||||||||||||||||||||||||||||||||||||         ] 86% [|||||||||||||||||||||||||||||||||||||||||||||||||||         ] 87% [||||||||||||||||||||||||||||||||||||||||||||||||||||        ] 88% [|||||||||||||||||||||||||||||||||||||||||||||||||||||       ] 89% [|||||||||||||||||||||||||||||||||||||||||||||||||||||       ] 90% [||||||||||||||||||||||||||||||||||||||||||||||||||||||      ] 91% [||||||||||||||||||||||||||||||||||||||||||||||||||||||      ] 92% [|||||||||||||||||||||||||||||||||||||||||||||||||||||||     ] 93% [|||||||||||||||||||||||||||||||||||||||||||||||||||||||     ] 94% [||||||||||||||||||||||||||||||||||||||||||||||||||||||||    ] 95% [|||||||||||||||||||||||||||||||||||||||||||||||||||||||||   ] 96% [|||||||||||||||||||||||||||||||||||||||||||||||||||||||||   ] 97% [||||||||||||||||||||||||||||||||||||||||||||||||||||||||||  ] 98% [||||||||||||||||||||||||||||||||||||||||||||||||||||||||||  ] 99% [||||||||||||||||||||||||||||||||||||||||||||||||||||||||||| ]100% [||||||||||||||||||||||||||||||||||||||||||||||||||||||||||||]
debug: Trec.size() = 101
######### Postprocessing #########
  0% [                                                            ]  1% [|                                                           ]  2% [|                                                           ]  3% [||                                                          ]  4% [||                                                          ]  5% [|||                                                         ]  6% [||||                                                        ]  7% [||||                                                        ]  8% [|||||                                                       ]  9% [|||||                                                       ] 10% [||||||                                                      ] 11% [|||||||                                                     ] 12% [|||||||                                                     ] 13% [||||||||                                                    ] 14% [||||||||                                                    ] 15% [|||||||||                                                   ] 16% [||||||||||                                                  ] 17% [||||||||||                                                  ] 18% [|||||||||||                                                 ] 19% [|||||||||||                                                 ] 20% [||||||||||||                                                ] 21% [|||||||||||||                                               ] 22% [|||||||||||||                                               ] 23% [||||||||||||||                                              ] 24% [||||||||||||||                                              ] 25% [|||||||||||||||                                             ] 26% [||||||||||||||||                                            ] 27% [||||||||||||||||                                            ] 28% [|||||||||||||||||                                           ] 29% [|||||||||||||||||                                           ] 30% [||||||||||||||||||                                          ] 31% [|||||||||||||||||||                                         ] 32% [|||||||||||||||||||                                         ] 33% [||||||||||||||||||||                                        ] 34% [||||||||||||||||||||                                        ] 35% [|||||||||||||||||||||                                       ] 36% [|||||||||||||||||||||                                       ] 37% [||||||||||||||||||||||                                      ] 38% [|||||||||||||||||||||||                                     ] 39% [|||||||||||||||||||||||                                     ] 40% [||||||||||||||||||||||||                                    ] 41% [||||||||||||||||||||||||                                    ] 42% [|||||||||||||||||||||||||                                   ] 43% [||||||||||||||||||||||||||                                  ] 44% [||||||||||||||||||||||||||                                  ] 45% [|||||||||||||||||||||||||||                                 ] 46% [|||||||||||||||||||||||||||                                 ] 47% [||||||||||||||||||||||||||||                                ] 48% [|||||||||||||||||||||||||||||                               ] 49% [|||||||||||||||||||||||||||||                               ] 50% [||||||||||||||||||||||||||||||                              ] 51% [||||||||||||||||||||||||||||||                              ] 52% [|||||||||||||||||||||||||||||||                             ] 53% [||||||||||||||||||||||||||||||||                            ] 54% [||||||||||||||||||||||||||||||||                            ] 55% [|||||||||||||||||||||||||||||||||                           ] 56% [|||||||||||||||||||||||||||||||||                           ] 57% [||||||||||||||||||||||||||||||||||                          ] 58% [|||||||||||||||||||||||||||||||||||                         ] 59% [|||||||||||||||||||||||||||||||||||                         ] 60% [||||||||||||||||||||||||||||||||||||                        ] 61% [||||||||||||||||||||||||||||||||||||                        ] 62% [|||||||||||||||||||||||||||||||||||||                       ] 63% [||||||||||||||||||||||||||||||||||||||                      ] 64% [||||||||||||||||||||||||||||||||||||||                      ] 65% [|||||||||||||||||||||||||||||||||||||||                     ] 66% [|||||||||||||||||||||||||||||||||||||||                     ] 67% [||||||||||||||||||||||||||||||||||||||||                    ] 68% [||||||||||||||||||||||||||||||||||||||||                    ] 69% [|||||||||||||||||||||||||||||||||||||||||                   ] 70% [||||||||||||||||||||||||||||||||||||||||||                  ] 71% [||||||||||||||||||||||||||||||||||||||||||                  ] 72% [|||||||||||||||||||||||||||||||||||||||||||                 ] 73% [|||||||||||||||||||||||||||||||||||||||||||                 ] 74% [||||||||||||||||||||||||||||||||||||||||||||                ] 75% [|||||||||||||||||||||||||||||||||||||||||||||               ] 76% [|||||||||||||||||||||||||||||||||||||||||||||               ] 77% [||||||||||||||||||||||||||||||||||||||||||||||              ] 78% [||||||||||||||||||||||||||||||||||||||||||||||              ] 79% [|||||||||||||||||||||||||||||||||||||||||||||||             ] 80% [||||||||||||||||||||||||||||||||||||||||||||||||            ] 81% [||||||||||||||||||||||||||||||||||||||||||||||||            ] 82% [|||||||||||||||||||||||||||||||||||||||||||||||||           ] 83% [|||||||||||||||||||||||||||||||||||||||||||||||||           ] 84% [||||||||||||||||||||||||||||||||||||||||||||||||||          ] 85% [|||||||||||||||||||||||||||||||||||||||||||||||||||         ] 86% [|||||||||||||||||||||||||||||||||||||||||||||||||||         ] 87% [||||||||||||||||||||||||||||||||||||||||||||||||||||        ] 88% [||||||||||||||||||||||||||||||||||||||||||||||||||||        ] 89% [|||||||||||||||||||||||||||||||||||||||||||||||||||||       ] 90% [||||||||||||||||||||||||||||||||||||||||||||||||||||||      ] 91% [||||||||||||||||||||||||||||||||||||||||||||||||||||||      ] 92% [|||||||||||||||||||||||||||||||||||||||||||||||||||||||     ] 93% [|||||||||||||||||||||||||||||||||||||||||||||||||||||||     ] 94% [||||||||||||||||||||||||||||||||||||||||||||||||||||||||    ] 95% [|||||||||||||||||||||||||||||||||||||||||||||||||||||||||   ] 96% [|||||||||||||||||||||||||||||||||||||||||||||||||||||||||   ] 97% [||||||||||||||||||||||||||||||||||||||||||||||||||||||||||  ] 98% [||||||||||||||||||||||||||||||||||||||||||||||||||||||||||  ] 99% [||||||||||||||||||||||||||||||||||||||||||||||||||||||||||| ]100% [||||||||||||||||||||||||||||||||||||||||||||||||||||||||||||]I/O    : uncollated
