/*---------------------------------------------------------------------------*\
| =========                 |                                                 |
| \\      /  F ield         | OpenFOAM: The Open Source CFD Toolbox           |
|  \\    /   O peration     | Version:  v2012                                 |
|   \\  /    A nd           | Website:  www.openfoam.com                      |
|    \\/     M anipulation  |                                                 |
\*---------------------------------------------------------------------------*/
Build  : _7bdb509494-20201222 OPENFOAM=2012
Arch   : "LSB;label=32;scalar=64"
Exec   : redSequential
Date   : Jun 17 2021
Time   : 09:03:07
Host   : inspiron-UM
PID    : 23465
I/O    : uncollated
Case   : /media/Data/ITHACA-FV/tutorials/inverseHeatTransfer/unsteadyTutorials/reducedSequentialIHTP/coarseMesh
nProcs : 1
trapFpe: Floating point exception trapping enabled (FOAM_SIGFPE).
fileModificationChecking : Monitoring run-time modified files using timeStampMaster (fileModificationSkew 5, maxFileModificationPolls 20)
allowSystemOperations : Allowing user-supplied system call operations

// * * * * * * * * * * * * * * * * * * * * * * * * * * * * * * * * * * * * * //
Create time

Create mesh for time = 0


SIMPLE: convergence criteria
    field T	 tolerance 1e-12

Create field T
First sampling time = 1
Delta time between samples = 1
Number of samplings = 50
Offline data already exist, reading existing data
POD data already exist, reading existing modes
/*---------------------------------------------------------------------------*\
| =========                 |                                                 |
| \\      /  F ield         | OpenFOAM: The Open Source CFD Toolbox           |
|  \\    /   O peration     | Version:  v2012                                 |
|   \\  /    A nd           | Website:  www.openfoam.com                      |
|    \\/     M anipulation  |                                                 |
\*---------------------------------------------------------------------------*/
Build  : _7bdb509494-20201222 OPENFOAM=2012
Arch   : "LSB;label=32;scalar=64"
Exec   : redSequential
Date   : Jun 17 2021
Time   : 09:03:07
Host   : inspiron-UM
PID    : 23465
--> FOAM Warning : 
    From Foam::entry* Foam::dictionary::add(Foam::entry*, bool)
    in file db/dictionary/dictionary.C at line 777
    Reading "JobInfo" at line 0
    Attempt to add entry startDate which already exists in dictionary "JobInfo"
--> FOAM Warning : 
    From Foam::entry* Foam::dictionary::add(Foam::entry*, bool)
    in file db/dictionary/dictionary.C at line 777
    Reading "JobInfo" at line 0
    Attempt to add entry startTime which already exists in dictionary "JobInfo"
--> FOAM Warning : 
    From Foam::entry* Foam::dictionary::add(Foam::entry*, bool)
    in file db/dictionary/dictionary.C at line 777
    Reading "JobInfo" at line 0
    Attempt to add entry userName which already exists in dictionary "JobInfo"
--> FOAM Warning : 
    From Foam::entry* Foam::dictionary::add(Foam::entry*, bool)
    in file db/dictionary/dictionary.C at line 777
    Reading "JobInfo" at line 0
    Attempt to add entry foamVersion which already exists in dictionary "JobInfo"
--> FOAM Warning : 
    From Foam::entry* Foam::dictionary::add(Foam::entry*, bool)
    in file db/dictionary/dictionary.C at line 777
    Reading "JobInfo" at line 0
    Attempt to add entry code which already exists in dictionary "JobInfo"
--> FOAM Warning : 
    From Foam::entry* Foam::dictionary::add(Foam::entry*, bool)
    in file db/dictionary/dictionary.C at line 777
    Reading "JobInfo" at line 0
    Attempt to add entry argList which already exists in dictionary "JobInfo"
--> FOAM Warning : 
    From Foam::entry* Foam::dictionary::add(Foam::entry*, bool)
    in file db/dictionary/dictionary.C at line 777
    Reading "JobInfo" at line 0
    Attempt to add entry currentDir which already exists in dictionary "JobInfo"
--> FOAM Warning : 
    From Foam::entry* Foam::dictionary::add(Foam::entry*, bool)
    in file db/dictionary/dictionary.C at line 777
    Reading "JobInfo" at line 0
    Attempt to add entry PPID which already exists in dictionary "JobInfo"
--> FOAM Warning : 
    From Foam::entry* Foam::dictionary::add(Foam::entry*, bool)
    in file db/dictionary/dictionary.C at line 777
    Reading "JobInfo" at line 0
    Attempt to add entry PGID which already exists in dictionary "JobInfo"
--> FOAM Warning : 
    From Foam::entry* Foam::dictionary::add(Foam::entry*, bool)
    in file db/dictionary/dictionary.C at line 777
    Reading "JobInfo" at line 0
    Attempt to add entry foamBuild which already exists in dictionary "JobInfo"
I/O    : uncollated
Case   : /media/Data/ITHACA-FV/tutorials/inverseHeatTransfer/unsteadyTutorials/reducedSequentialIHTP/coarseMesh
nProcs : 1
--> FOAM Warning : 
    From Foam::entry* Foam::dictionary::add(Foam::entry*, bool)
    in file db/dictionary/dictionary.C at line 777
    Reading "JobInfo" at line 0
    Attempt to add entry root which already exists in dictionary "JobInfo"
--> FOAM Warning : 
    From Foam::entry* Foam::dictionary::add(Foam::entry*, bool)
    in file db/dictionary/dictionary.C at line 777
    Reading "JobInfo" at line 0
    Attempt to add entry case which already exists in dictionary "JobInfo"
--> FOAM Warning : 
    From Foam::entry* Foam::dictionary::add(Foam::entry*, bool)
    in file db/dictionary/dictionary.C at line 777
    Reading "JobInfo" at line 0
    Attempt to add entry nProcs which already exists in dictionary "JobInfo"
fileModificationChecking : Monitoring run-time modified files using timeStampMaster (fileModificationSkew 5, maxFileModificationPolls 20)
allowSystemOperations : Allowing user-supplied system call operations

// * * * * * * * * * * * * * * * * * * * * * * * * * * * * * * * * * * * * * //
Create time

Create mesh for time = 0


SIMPLE: convergence criteria
    field T	 tolerance 1e-12

Create field T
Offline data already exist, reading existing data
POD data already exist, reading existing modes

 ************************************************************ 
Conducting chirp test to compare performance of steady and unsteady inverse solvers
We assume the heat flux to estimate has the shape:

 g = A + B sin [2 pi (a t) t] 
Maximum frequency is 0.1Hz
 
Using time basis of type constant

Defining positions of thermocouples
Reading thermocouples cells from file

SIMPLE: convergence criteria
    field T	 tolerance 1e-12

Ready for new computation

SIMPLE: convergence criteria
    field T	 tolerance 1e-12

DT = DT [1 1 -3 -1 0 0 0] 1
DICPCG:  Solving for T, Initial residual = 1, Final residual = 7.163419008537754e-13, No Iterations 55
DICPCG:  Solving for T, Initial residual = 2.632934387751992e-13, Final residual = 2.632934387751992e-13, No Iterations 0

SIMPLE solution converged in 0.2 iterations

Performing true computation

SIMPLE: convergence criteria
    field T	 tolerance 1e-12

Ready for new computation
Thermal diffusivity = 0.0001098491366947743 m2/s
Time = 0.1

DICPCG:  Solving for T, Initial residual = 7.012998628413364e-06, Final residual = 4.750553902614842e-13, No Iterations 3

ExecutionTime = 0.6 s  ClockTime = 0 s

Time = 0.2

DICPCG:  Solving for T, Initial residual = 1.412000640433758e-05, Final residual = 8.979139189344287e-13, No Iterations 3

ExecutionTime = 0.66 s  ClockTime = 0 s

Time = 0.3

DICPCG:  Solving for T, Initial residual = 2.129337461736876e-05, Final residual = 3.722442503932353e-15, No Iterations 4

ExecutionTime = 0.73 s  ClockTime = 0 s

Time = 0.4

DICPCG:  Solving for T, Initial residual = 2.850566458601353e-05, Final residual = 4.668167514779176e-15, No Iterations 4

ExecutionTime = 0.79 s  ClockTime = 1 s

Time = 0.5

DICPCG:  Solving for T, Initial residual = 3.572976044421783e-05, Final residual = 5.507740274674013e-15, No Iterations 4

ExecutionTime = 0.85 s  ClockTime = 1 s

Time = 0.6

DICPCG:  Solving for T, Initial residual = 4.293898048799226e-05, Final residual = 6.259810081772835e-15, No Iterations 4

ExecutionTime = 0.92 s  ClockTime = 1 s

Time = 0.7

DICPCG:  Solving for T, Initial residual = 5.010718606545088e-05, Final residual = 6.941354883888956e-15, No Iterations 4

ExecutionTime = 0.98 s  ClockTime = 1 s

Time = 0.8

DICPCG:  Solving for T, Initial residual = 5.720888930091974e-05, Final residual = 7.560256035250282e-15, No Iterations 4

ExecutionTime = 1.05 s  ClockTime = 1 s

Time = 0.9

DICPCG:  Solving for T, Initial residual = 6.421935720706429e-05, Final residual = 8.122558969588758e-15, No Iterations 4

ExecutionTime = 1.11 s  ClockTime = 1 s

Time = 1

DICPCG:  Solving for T, Initial residual = 7.111471194434318e-05, Final residual = 8.685818223673212e-15, No Iterations 4

ExecutionTime = 1.17 s  ClockTime = 1 s

Time = 1.1

DICPCG:  Solving for T, Initial residual = 7.787202766758119e-05, Final residual = 9.215114688411261e-15, No Iterations 4

ExecutionTime = 1.25 s  ClockTime = 1 s

Time = 1.2

DICPCG:  Solving for T, Initial residual = 8.446942246179286e-05, Final residual = 9.691125239741235e-15, No Iterations 4

ExecutionTime = 1.32 s  ClockTime = 1 s

Time = 1.3

DICPCG:  Solving for T, Initial residual = 9.088614599947764e-05, Final residual = 1.011528451492403e-14, No Iterations 4

ExecutionTime = 1.38 s  ClockTime = 2 s

Time = 1.4

DICPCG:  Solving for T, Initial residual = 9.710266182955995e-05, Final residual = 1.048913005816269e-14, No Iterations 4

ExecutionTime = 1.45 s  ClockTime = 2 s

Time = 1.5

DICPCG:  Solving for T, Initial residual = 0.0001031007241148998, Final residual = 1.081521036975445e-14, No Iterations 4

ExecutionTime = 1.51 s  ClockTime = 2 s

Time = 1.6

DICPCG:  Solving for T, Initial residual = 0.0001088634484916675, Final residual = 1.109449179215916e-14, No Iterations 4

ExecutionTime = 1.58 s  ClockTime = 2 s

Time = 1.7

DICPCG:  Solving for T, Initial residual = 0.0001143753751041246, Final residual = 1.132934275698163e-14, No Iterations 4

ExecutionTime = 1.64 s  ClockTime = 2 s

Time = 1.8

DICPCG:  Solving for T, Initial residual = 0.0001196225296703614, Final residual = 1.151962608995752e-14, No Iterations 4

ExecutionTime = 1.71 s  ClockTime = 2 s

Time = 1.9

DICPCG:  Solving for T, Initial residual = 0.0001245924746813096, Final residual = 1.166393489615861e-14, No Iterations 4

ExecutionTime = 1.78 s  ClockTime = 2 s

Time = 2

DICPCG:  Solving for T, Initial residual = 0.0001292743530006816, Final residual = 1.176440171324257e-14, No Iterations 4

ExecutionTime = 1.84 s  ClockTime = 2 s

Time = 2.1

DICPCG:  Solving for T, Initial residual = 0.0001336589251673776, Final residual = 1.182270104244217e-14, No Iterations 4

ExecutionTime = 1.91 s  ClockTime = 2 s

Time = 2.2

DICPCG:  Solving for T, Initial residual = 0.0001377386022526026, Final residual = 1.184017651097982e-14, No Iterations 4

ExecutionTime = 1.98 s  ClockTime = 2 s

Time = 2.3

DICPCG:  Solving for T, Initial residual = 0.0001415074661598725, Final residual = 1.181647313498598e-14, No Iterations 4

ExecutionTime = 2.04 s  ClockTime = 3 s

Time = 2.4

DICPCG:  Solving for T, Initial residual = 0.0001449612888708566, Final residual = 1.175409337950667e-14, No Iterations 4

ExecutionTime = 2.11 s  ClockTime = 3 s

Time = 2.5

DICPCG:  Solving for T, Initial residual = 0.0001480975435966077, Final residual = 1.165612394373447e-14, No Iterations 4

ExecutionTime = 2.17 s  ClockTime = 3 s

Time = 2.6

DICPCG:  Solving for T, Initial residual = 0.0001509154013501267, Final residual = 1.152236452367453e-14, No Iterations 4

ExecutionTime = 2.23 s  ClockTime = 3 s

Time = 2.7

DICPCG:  Solving for T, Initial residual = 0.0001534157351381054, Final residual = 1.135563115946619e-14, No Iterations 4

ExecutionTime = 2.3 s  ClockTime = 3 s

Time = 2.8

DICPCG:  Solving for T, Initial residual = 0.0001556010986675538, Final residual = 1.11577091975346e-14, No Iterations 4

ExecutionTime = 2.36 s  ClockTime = 3 s

Time = 2.9

DICPCG:  Solving for T, Initial residual = 0.0001574757078249574, Final residual = 1.093186340215997e-14, No Iterations 4

ExecutionTime = 2.42 s  ClockTime = 3 s

Time = 3

DICPCG:  Solving for T, Initial residual = 0.0001590454210126853, Final residual = 1.067990717142741e-14, No Iterations 4

ExecutionTime = 2.49 s  ClockTime = 3 s

Time = 3.1

DICPCG:  Solving for T, Initial residual = 0.000160317701521008, Final residual = 1.040438906906293e-14, No Iterations 4

ExecutionTime = 2.56 s  ClockTime = 3 s

Time = 3.2

DICPCG:  Solving for T, Initial residual = 0.0001613015763407809, Final residual = 1.010841773253293e-14, No Iterations 4

ExecutionTime = 2.62 s  ClockTime = 3 s

Time = 3.3

DICPCG:  Solving for T, Initial residual = 0.0001620075945535953, Final residual = 9.794204690253457e-15, No Iterations 4

ExecutionTime = 2.68 s  ClockTime = 4 s

Time = 3.4

DICPCG:  Solving for T, Initial residual = 0.0001624477819691424, Final residual = 9.465100764703349e-15, No Iterations 4

ExecutionTime = 2.75 s  ClockTime = 4 s

Time = 3.5

DICPCG:  Solving for T, Initial residual = 0.0001626355762839833, Final residual = 9.124988082085022e-15, No Iterations 4

ExecutionTime = 2.81 s  ClockTime = 4 s

Time = 3.6

DICPCG:  Solving for T, Initial residual = 0.0001625857684300788, Final residual = 8.77499609898505e-15, No Iterations 4

ExecutionTime = 2.88 s  ClockTime = 4 s

Time = 3.7

DICPCG:  Solving for T, Initial residual = 0.0001623144322979011, Final residual = 8.421433068398593e-15, No Iterations 4

ExecutionTime = 2.94 s  ClockTime = 4 s

Time = 3.8

DICPCG:  Solving for T, Initial residual = 0.000161838851641087, Final residual = 8.069672919323122e-15, No Iterations 4

ExecutionTime = 3.01 s  ClockTime = 4 s

Time = 3.9

DICPCG:  Solving for T, Initial residual = 0.0001611774438118913, Final residual = 7.72115996447621e-15, No Iterations 4

ExecutionTime = 3.07 s  ClockTime = 4 s

Time = 4

DICPCG:  Solving for T, Initial residual = 0.0001603496811810063, Final residual = 7.377865551139865e-15, No Iterations 4

ExecutionTime = 3.14 s  ClockTime = 4 s

Time = 4.1

DICPCG:  Solving for T, Initial residual = 0.0001593759945662618, Final residual = 7.04458905617233e-15, No Iterations 4

ExecutionTime = 3.2 s  ClockTime = 4 s

Time = 4.2

DICPCG:  Solving for T, Initial residual = 0.0001582776947601366, Final residual = 6.72827990879663e-15, No Iterations 4

ExecutionTime = 3.26 s  ClockTime = 4 s

Time = 4.3

DICPCG:  Solving for T, Initial residual = 0.0001570768724761287, Final residual = 6.433178094468449e-15, No Iterations 4

ExecutionTime = 3.33 s  ClockTime = 5 s

Time = 4.4

DICPCG:  Solving for T, Initial residual = 0.0001557963048925779, Final residual = 6.16671023792236e-15, No Iterations 4

ExecutionTime = 3.39 s  ClockTime = 5 s

Time = 4.5

DICPCG:  Solving for T, Initial residual = 0.0001544593553500261, Final residual = 5.935386406798555e-15, No Iterations 4

ExecutionTime = 3.45 s  ClockTime = 5 s

Time = 4.6

DICPCG:  Solving for T, Initial residual = 0.000153089870324683, Final residual = 5.740317418073061e-15, No Iterations 4

ExecutionTime = 3.52 s  ClockTime = 5 s

Time = 4.7

DICPCG:  Solving for T, Initial residual = 0.0001517186362090798, Final residual = 5.579918685440209e-15, No Iterations 4

ExecutionTime = 3.58 s  ClockTime = 5 s

Time = 4.8

DICPCG:  Solving for T, Initial residual = 0.000150402255560883, Final residual = 5.453135819120135e-15, No Iterations 4

ExecutionTime = 3.65 s  ClockTime = 5 s

Time = 4.9

DICPCG:  Solving for T, Initial residual = 0.0001491673604140236, Final residual = 5.357297398867949e-15, No Iterations 4

ExecutionTime = 3.71 s  ClockTime = 5 s

Time = 5

DICPCG:  Solving for T, Initial residual = 0.0001480311763448221, Final residual = 5.288795730622827e-15, No Iterations 4

ExecutionTime = 3.78 s  ClockTime = 5 s

Time = 5.1

DICPCG:  Solving for T, Initial residual = 0.0001470072384892852, Final residual = 5.24676399899904e-15, No Iterations 4

ExecutionTime = 3.84 s  ClockTime = 5 s

Time = 5.2

DICPCG:  Solving for T, Initial residual = 0.0001461098209919904, Final residual = 5.229466441819112e-15, No Iterations 4

ExecutionTime = 3.9 s  ClockTime = 5 s

Time = 5.3

DICPCG:  Solving for T, Initial residual = 0.0001453511645742774, Final residual = 5.235206396953112e-15, No Iterations 4

ExecutionTime = 3.97 s  ClockTime = 6 s

Time = 5.4

DICPCG:  Solving for T, Initial residual = 0.0001447443672345505, Final residual = 5.262992953502749e-15, No Iterations 4

ExecutionTime = 4.03 s  ClockTime = 6 s

Time = 5.5

DICPCG:  Solving for T, Initial residual = 0.0001443030688612602, Final residual = 5.312722857784406e-15, No Iterations 4

ExecutionTime = 4.1 s  ClockTime = 6 s

Time = 5.6

DICPCG:  Solving for T, Initial residual = 0.0001440480516110337, Final residual = 5.384959106631263e-15, No Iterations 4

ExecutionTime = 4.17 s  ClockTime = 6 s

Time = 5.7

DICPCG:  Solving for T, Initial residual = 0.0001440036344600591, Final residual = 5.481345657942553e-15, No Iterations 4

ExecutionTime = 4.23 s  ClockTime = 6 s

Time = 5.8

DICPCG:  Solving for T, Initial residual = 0.0001441864677849868, Final residual = 5.603636813027613e-15, No Iterations 4

ExecutionTime = 4.3 s  ClockTime = 6 s

Time = 5.9

DICPCG:  Solving for T, Initial residual = 0.0001446099346453732, Final residual = 5.75140735161424e-15, No Iterations 4

ExecutionTime = 4.36 s  ClockTime = 6 s

Time = 6

DICPCG:  Solving for T, Initial residual = 0.0001452937392848433, Final residual = 5.926409238967489e-15, No Iterations 4

ExecutionTime = 4.42 s  ClockTime = 6 s

Time = 6.1

DICPCG:  Solving for T, Initial residual = 0.0001462552602727865, Final residual = 6.131115360263335e-15, No Iterations 4

ExecutionTime = 4.48 s  ClockTime = 6 s

Time = 6.2

DICPCG:  Solving for T, Initial residual = 0.0001475115940466286, Final residual = 6.3674561594448e-15, No Iterations 4

ExecutionTime = 4.55 s  ClockTime = 6 s

Time = 6.3

DICPCG:  Solving for T, Initial residual = 0.0001490811173341163, Final residual = 6.638431158437873e-15, No Iterations 4

ExecutionTime = 4.61 s  ClockTime = 7 s

Time = 6.4

DICPCG:  Solving for T, Initial residual = 0.0001509894975509501, Final residual = 6.946981026047003e-15, No Iterations 4

ExecutionTime = 4.68 s  ClockTime = 7 s

Time = 6.5

DICPCG:  Solving for T, Initial residual = 0.0001532543832020714, Final residual = 7.296913681598574e-15, No Iterations 4

ExecutionTime = 4.75 s  ClockTime = 7 s

Time = 6.6

DICPCG:  Solving for T, Initial residual = 0.0001558971187099107, Final residual = 7.687537052820184e-15, No Iterations 4

ExecutionTime = 4.81 s  ClockTime = 7 s

Time = 6.7

DICPCG:  Solving for T, Initial residual = 0.000158931129989422, Final residual = 8.118035562686076e-15, No Iterations 4

ExecutionTime = 4.87 s  ClockTime = 7 s

Time = 6.8

DICPCG:  Solving for T, Initial residual = 0.0001623777979043831, Final residual = 8.587615211164147e-15, No Iterations 4

ExecutionTime = 4.94 s  ClockTime = 7 s

Time = 6.9

DICPCG:  Solving for T, Initial residual = 0.0001662509359117465, Final residual = 9.096841881985826e-15, No Iterations 4

ExecutionTime = 5.01 s  ClockTime = 7 s

Time = 7

DICPCG:  Solving for T, Initial residual = 0.0001705642100277921, Final residual = 9.648497155767089e-15, No Iterations 4

ExecutionTime = 5.07 s  ClockTime = 7 s

Time = 7.1

DICPCG:  Solving for T, Initial residual = 0.0001753228254643086, Final residual = 1.023868756434974e-14, No Iterations 4

ExecutionTime = 5.13 s  ClockTime = 7 s

Time = 7.2

DICPCG:  Solving for T, Initial residual = 0.0001805271823957183, Final residual = 1.086191801590617e-14, No Iterations 4

ExecutionTime = 5.2 s  ClockTime = 7 s

Time = 7.3

DICPCG:  Solving for T, Initial residual = 0.0001861546465104818, Final residual = 1.151620520369704e-14, No Iterations 4

ExecutionTime = 5.26 s  ClockTime = 8 s

Time = 7.4

DICPCG:  Solving for T, Initial residual = 0.0001922065383037795, Final residual = 1.219726164541232e-14, No Iterations 4

ExecutionTime = 5.32 s  ClockTime = 8 s

Time = 7.5

DICPCG:  Solving for T, Initial residual = 0.0001986662543351009, Final residual = 1.290284519081686e-14, No Iterations 4

ExecutionTime = 5.38 s  ClockTime = 8 s

Time = 7.6

DICPCG:  Solving for T, Initial residual = 0.0002055263423268249, Final residual = 1.363045889730159e-14, No Iterations 4

ExecutionTime = 5.45 s  ClockTime = 8 s

Time = 7.7

DICPCG:  Solving for T, Initial residual = 0.0002127782303980334, Final residual = 1.437815012821777e-14, No Iterations 4

ExecutionTime = 5.52 s  ClockTime = 8 s

Time = 7.8

DICPCG:  Solving for T, Initial residual = 0.0002204114105338043, Final residual = 1.514325736832085e-14, No Iterations 4

ExecutionTime = 5.58 s  ClockTime = 8 s

Time = 7.9

DICPCG:  Solving for T, Initial residual = 0.0002284134496997326, Final residual = 1.59229537825628e-14, No Iterations 4

ExecutionTime = 5.65 s  ClockTime = 8 s

Time = 8

DICPCG:  Solving for T, Initial residual = 0.000236770011674221, Final residual = 1.671480057105972e-14, No Iterations 4

ExecutionTime = 5.71 s  ClockTime = 8 s

Time = 8.1

DICPCG:  Solving for T, Initial residual = 0.0002454648816467966, Final residual = 1.751601066066248e-14, No Iterations 4

ExecutionTime = 5.78 s  ClockTime = 8 s

Time = 8.2

DICPCG:  Solving for T, Initial residual = 0.0002544800082806468, Final residual = 1.832402038817909e-14, No Iterations 4

ExecutionTime = 5.83 s  ClockTime = 8 s

Time = 8.3

DICPCG:  Solving for T, Initial residual = 0.0002637955418954035, Final residual = 1.913613352079365e-14, No Iterations 4

ExecutionTime = 5.9 s  ClockTime = 9 s

Time = 8.4

DICPCG:  Solving for T, Initial residual = 0.0002733898945226805, Final residual = 1.994954355265868e-14, No Iterations 4

ExecutionTime = 5.96 s  ClockTime = 9 s

Time = 8.5

DICPCG:  Solving for T, Initial residual = 0.0002832397914874574, Final residual = 2.07612268209604e-14, No Iterations 4

ExecutionTime = 6.03 s  ClockTime = 9 s

Time = 8.6

DICPCG:  Solving for T, Initial residual = 0.0002933203571200265, Final residual = 2.156765114125995e-14, No Iterations 4

ExecutionTime = 6.09 s  ClockTime = 9 s

Time = 8.7

DICPCG:  Solving for T, Initial residual = 0.0003036051721877088, Final residual = 2.236589185495464e-14, No Iterations 4

ExecutionTime = 6.16 s  ClockTime = 9 s

Time = 8.8

DICPCG:  Solving for T, Initial residual = 0.0003140663535533437, Final residual = 2.315250371391783e-14, No Iterations 4

ExecutionTime = 6.22 s  ClockTime = 9 s

Time = 8.9

DICPCG:  Solving for T, Initial residual = 0.0003246746325371489, Final residual = 2.392415978101279e-14, No Iterations 4

ExecutionTime = 6.28 s  ClockTime = 9 s

Time = 9

DICPCG:  Solving for T, Initial residual = 0.0003353994724056595, Final residual = 2.467723306103091e-14, No Iterations 4

ExecutionTime = 6.35 s  ClockTime = 9 s

Time = 9.1

DICPCG:  Solving for T, Initial residual = 0.0003462091774675695, Final residual = 2.540825026891375e-14, No Iterations 4

ExecutionTime = 6.42 s  ClockTime = 9 s

Time = 9.2

DICPCG:  Solving for T, Initial residual = 0.0003570709724787215, Final residual = 2.611381961732681e-14, No Iterations 4

ExecutionTime = 6.49 s  ClockTime = 10 s

Time = 9.3

DICPCG:  Solving for T, Initial residual = 0.0003679511067045518, Final residual = 2.679045367488936e-14, No Iterations 4

ExecutionTime = 6.57 s  ClockTime = 10 s

Time = 9.4

DICPCG:  Solving for T, Initial residual = 0.0003788149758972025, Final residual = 2.743472578180523e-14, No Iterations 4

ExecutionTime = 6.65 s  ClockTime = 10 s

Time = 9.5

DICPCG:  Solving for T, Initial residual = 0.0003896272540515954, Final residual = 2.804324197516762e-14, No Iterations 4

ExecutionTime = 6.74 s  ClockTime = 10 s

Time = 9.6

DICPCG:  Solving for T, Initial residual = 0.0004003519962816878, Final residual = 2.861260744972081e-14, No Iterations 4

ExecutionTime = 6.81 s  ClockTime = 10 s

Time = 9.7

DICPCG:  Solving for T, Initial residual = 0.0004109527452424201, Final residual = 2.913954847473861e-14, No Iterations 4

ExecutionTime = 6.88 s  ClockTime = 10 s

Time = 9.8

DICPCG:  Solving for T, Initial residual = 0.0004213927211041985, Final residual = 2.962079704537842e-14, No Iterations 4

ExecutionTime = 6.95 s  ClockTime = 10 s

Time = 9.9

DICPCG:  Solving for T, Initial residual = 0.0004316349196289231, Final residual = 3.005325803371939e-14, No Iterations 4

ExecutionTime = 7.02 s  ClockTime = 10 s

Time = 10

DICPCG:  Solving for T, Initial residual = 0.0004416422356206748, Final residual = 3.043390192568809e-14, No Iterations 4

ExecutionTime = 7.08 s  ClockTime = 10 s

Time = 10.1

DICPCG:  Solving for T, Initial residual = 0.0004513775351571946, Final residual = 3.075959311609163e-14, No Iterations 4

ExecutionTime = 7.15 s  ClockTime = 11 s

Time = 10.2

DICPCG:  Solving for T, Initial residual = 0.0004608038739221694, Final residual = 3.102745202278662e-14, No Iterations 4

ExecutionTime = 7.21 s  ClockTime = 11 s

Time = 10.3

DICPCG:  Solving for T, Initial residual = 0.0004698845940940196, Final residual = 3.123507917712104e-14, No Iterations 4

ExecutionTime = 7.28 s  ClockTime = 11 s

Time = 10.4

DICPCG:  Solving for T, Initial residual = 0.0004785834129638754, Final residual = 3.13810045503034e-14, No Iterations 4

ExecutionTime = 7.34 s  ClockTime = 11 s

Time = 10.5

DICPCG:  Solving for T, Initial residual = 0.0004868646352773466, Final residual = 3.146255206756784e-14, No Iterations 4

ExecutionTime = 7.41 s  ClockTime = 11 s

Time = 10.6

DICPCG:  Solving for T, Initial residual = 0.0004946931601626516, Final residual = 3.14779607017508e-14, No Iterations 4

ExecutionTime = 7.47 s  ClockTime = 11 s

Time = 10.7

DICPCG:  Solving for T, Initial residual = 0.0005020346993590703, Final residual = 3.142373019199558e-14, No Iterations 4

ExecutionTime = 7.57 s  ClockTime = 11 s

Time = 10.8

DICPCG:  Solving for T, Initial residual = 0.0005088558914318899, Final residual = 3.129987508295485e-14, No Iterations 4

ExecutionTime = 7.65 s  ClockTime = 12 s

Time = 10.9

DICPCG:  Solving for T, Initial residual = 0.0005151243477182366, Final residual = 3.110193374696646e-14, No Iterations 4

ExecutionTime = 7.71 s  ClockTime = 12 s

Time = 11

DICPCG:  Solving for T, Initial residual = 0.0005208088123821541, Final residual = 3.082914561782788e-14, No Iterations 4

ExecutionTime = 7.78 s  ClockTime = 12 s

Time = 11.1

DICPCG:  Solving for T, Initial residual = 0.0005258792474654178, Final residual = 3.048126882526753e-14, No Iterations 4

ExecutionTime = 7.84 s  ClockTime = 12 s

Time = 11.2

DICPCG:  Solving for T, Initial residual = 0.0005303069527301857, Final residual = 3.005725257876861e-14, No Iterations 4

ExecutionTime = 7.91 s  ClockTime = 12 s

Time = 11.3

DICPCG:  Solving for T, Initial residual = 0.0005340646377920117, Final residual = 2.955534121012757e-14, No Iterations 4

ExecutionTime = 7.97 s  ClockTime = 12 s

Time = 11.4

DICPCG:  Solving for T, Initial residual = 0.0005371264933364807, Final residual = 2.897488181676877e-14, No Iterations 4

ExecutionTime = 8.039999999999999 s  ClockTime = 12 s

Time = 11.5

DICPCG:  Solving for T, Initial residual = 0.0005394682922226726, Final residual = 2.831620101150519e-14, No Iterations 4

ExecutionTime = 8.109999999999999 s  ClockTime = 12 s

Time = 11.6

DICPCG:  Solving for T, Initial residual = 0.0005410674679401175, Final residual = 2.757577093653331e-14, No Iterations 4

ExecutionTime = 8.17 s  ClockTime = 12 s

Time = 11.7

DICPCG:  Solving for T, Initial residual = 0.0005419031847339071, Final residual = 2.675273126932302e-14, No Iterations 4

ExecutionTime = 8.26 s  ClockTime = 13 s

Time = 11.8

DICPCG:  Solving for T, Initial residual = 0.000541956443556623, Final residual = 2.584724128740871e-14, No Iterations 4

ExecutionTime = 8.33 s  ClockTime = 13 s

Time = 11.9

DICPCG:  Solving for T, Initial residual = 0.0005412100718188028, Final residual = 2.485833749129961e-14, No Iterations 4

ExecutionTime = 8.4 s  ClockTime = 13 s

Time = 12

DICPCG:  Solving for T, Initial residual = 0.0005396488179051974, Final residual = 2.379277912483186e-14, No Iterations 4

ExecutionTime = 8.48 s  ClockTime = 13 s

Time = 12.1

DICPCG:  Solving for T, Initial residual = 0.0005372593913246836, Final residual = 2.264604214096453e-14, No Iterations 4

ExecutionTime = 8.539999999999999 s  ClockTime = 13 s

Time = 12.2

DICPCG:  Solving for T, Initial residual = 0.0005340304800988279, Final residual = 2.142134768747067e-14, No Iterations 4

ExecutionTime = 8.619999999999999 s  ClockTime = 13 s

Time = 12.3

DICPCG:  Solving for T, Initial residual = 0.0005299528174472648, Final residual = 2.012136865835877e-14, No Iterations 4

ExecutionTime = 8.69 s  ClockTime = 13 s

Time = 12.4

DICPCG:  Solving for T, Initial residual = 0.000525019160729847, Final residual = 1.875255652951437e-14, No Iterations 4

ExecutionTime = 8.76 s  ClockTime = 13 s

Time = 12.5

DICPCG:  Solving for T, Initial residual = 0.000519224356769416, Final residual = 1.733472447933133e-14, No Iterations 4

ExecutionTime = 8.83 s  ClockTime = 14 s

Time = 12.6

DICPCG:  Solving for T, Initial residual = 0.0005125653303385352, Final residual = 1.58805502205876e-14, No Iterations 4

ExecutionTime = 8.93 s  ClockTime = 14 s

Time = 12.7

DICPCG:  Solving for T, Initial residual = 0.0005050410959601063, Final residual = 1.438934491855714e-14, No Iterations 4

ExecutionTime = 9.02 s  ClockTime = 14 s

Time = 12.8

DICPCG:  Solving for T, Initial residual = 0.0004966527699937401, Final residual = 1.285218689727843e-14, No Iterations 4

ExecutionTime = 9.09 s  ClockTime = 14 s

Time = 12.9

DICPCG:  Solving for T, Initial residual = 0.00048740356887453, Final residual = 1.121575187950515e-14, No Iterations 4

ExecutionTime = 9.16 s  ClockTime = 14 s

Time = 13

DICPCG:  Solving for T, Initial residual = 0.0004772987985706505, Final residual = 9.462179150079656e-15, No Iterations 4

ExecutionTime = 9.25 s  ClockTime = 14 s

Time = 13.1

DICPCG:  Solving for T, Initial residual = 0.0004663458299526415, Final residual = 8.026878949341303e-15, No Iterations 4

ExecutionTime = 9.32 s  ClockTime = 15 s

Time = 13.2

DICPCG:  Solving for T, Initial residual = 0.0004545540932128707, Final residual = 8.676644599616056e-15, No Iterations 4

ExecutionTime = 9.41 s  ClockTime = 15 s

Time = 13.3

DICPCG:  Solving for T, Initial residual = 0.0004419350511325526, Final residual = 9.910395335283674e-15, No Iterations 4

ExecutionTime = 9.48 s  ClockTime = 15 s

Time = 13.4

DICPCG:  Solving for T, Initial residual = 0.0004285021789724551, Final residual = 1.101421288720317e-14, No Iterations 4

ExecutionTime = 9.539999999999999 s  ClockTime = 15 s

Time = 13.5

DICPCG:  Solving for T, Initial residual = 0.0004142709316574096, Final residual = 1.21023073356591e-14, No Iterations 4

ExecutionTime = 9.609999999999999 s  ClockTime = 15 s

Time = 13.6

DICPCG:  Solving for T, Initial residual = 0.0004000128776648241, Final residual = 1.332450934900976e-14, No Iterations 4

ExecutionTime = 9.68 s  ClockTime = 15 s

Time = 13.7

DICPCG:  Solving for T, Initial residual = 0.0003961041902835311, Final residual = 1.45994735799621e-14, No Iterations 4

ExecutionTime = 9.74 s  ClockTime = 15 s

Time = 13.8

DICPCG:  Solving for T, Initial residual = 0.000392720375638593, Final residual = 1.588359434204166e-14, No Iterations 4

ExecutionTime = 9.800000000000001 s  ClockTime = 15 s

Time = 13.9

DICPCG:  Solving for T, Initial residual = 0.0003887429464834048, Final residual = 1.708381847752922e-14, No Iterations 4

ExecutionTime = 9.859999999999999 s  ClockTime = 15 s

Time = 14

DICPCG:  Solving for T, Initial residual = 0.0003841689215926353, Final residual = 1.816546050363416e-14, No Iterations 4

ExecutionTime = 9.93 s  ClockTime = 15 s

Time = 14.1

DICPCG:  Solving for T, Initial residual = 0.0003789966388782139, Final residual = 1.928996317405541e-14, No Iterations 4

ExecutionTime = 10 s  ClockTime = 16 s

Time = 14.2

DICPCG:  Solving for T, Initial residual = 0.0003732257454475737, Final residual = 2.053966354724465e-14, No Iterations 4

ExecutionTime = 10.06 s  ClockTime = 16 s

Time = 14.3

DICPCG:  Solving for T, Initial residual = 0.0003668572150050394, Final residual = 2.179050891247154e-14, No Iterations 4

ExecutionTime = 10.13 s  ClockTime = 16 s

Time = 14.4

DICPCG:  Solving for T, Initial residual = 0.000365944285071296, Final residual = 2.302244197866123e-14, No Iterations 4

ExecutionTime = 10.19 s  ClockTime = 16 s

Time = 14.5

DICPCG:  Solving for T, Initial residual = 0.0003680657974148538, Final residual = 2.423459208704201e-14, No Iterations 4

ExecutionTime = 10.27 s  ClockTime = 16 s

Time = 14.6

DICPCG:  Solving for T, Initial residual = 0.0003696901085761791, Final residual = 2.543233723516429e-14, No Iterations 4

ExecutionTime = 10.34 s  ClockTime = 16 s

Time = 14.7

DICPCG:  Solving for T, Initial residual = 0.0003708038915699452, Final residual = 2.663953702722243e-14, No Iterations 4

ExecutionTime = 10.41 s  ClockTime = 16 s

Time = 14.8

DICPCG:  Solving for T, Initial residual = 0.0003713948104638181, Final residual = 2.784137683089428e-14, No Iterations 4

ExecutionTime = 10.46 s  ClockTime = 16 s

Time = 14.9

DICPCG:  Solving for T, Initial residual = 0.0003768583019841183, Final residual = 2.905198597850684e-14, No Iterations 4

ExecutionTime = 10.54 s  ClockTime = 16 s

Time = 15

DICPCG:  Solving for T, Initial residual = 0.0003842249968642928, Final residual = 3.02873003166336e-14, No Iterations 4

ExecutionTime = 10.6 s  ClockTime = 17 s

Time = 15.1

DICPCG:  Solving for T, Initial residual = 0.0003911035731681801, Final residual = 3.152382546400687e-14, No Iterations 4

ExecutionTime = 10.66 s  ClockTime = 17 s

Time = 15.2

DICPCG:  Solving for T, Initial residual = 0.0003974703698767162, Final residual = 3.272051459883405e-14, No Iterations 4

ExecutionTime = 10.72 s  ClockTime = 17 s

Time = 15.3

DICPCG:  Solving for T, Initial residual = 0.0004033025325244657, Final residual = 3.379910601035548e-14, No Iterations 4

ExecutionTime = 10.79 s  ClockTime = 17 s

Time = 15.4

DICPCG:  Solving for T, Initial residual = 0.0004127287519906176, Final residual = 3.470837864293199e-14, No Iterations 4

ExecutionTime = 10.85 s  ClockTime = 17 s

Time = 15.5

DICPCG:  Solving for T, Initial residual = 0.0004238102513092763, Final residual = 3.54949490621343e-14, No Iterations 4

ExecutionTime = 10.92 s  ClockTime = 17 s

Time = 15.6

DICPCG:  Solving for T, Initial residual = 0.0004343423307908389, Final residual = 3.626657551591576e-14, No Iterations 4

ExecutionTime = 11 s  ClockTime = 17 s

Time = 15.7

DICPCG:  Solving for T, Initial residual = 0.0004442935423807757, Final residual = 3.689033923768213e-14, No Iterations 4

ExecutionTime = 11.07 s  ClockTime = 17 s

Time = 15.8

DICPCG:  Solving for T, Initial residual = 0.0004536333612502377, Final residual = 3.73949885325207e-14, No Iterations 4

ExecutionTime = 11.13 s  ClockTime = 17 s

Time = 15.9

DICPCG:  Solving for T, Initial residual = 0.0004649552437366766, Final residual = 3.792495249617782e-14, No Iterations 4

ExecutionTime = 11.2 s  ClockTime = 18 s

Time = 16

DICPCG:  Solving for T, Initial residual = 0.0004781788224515727, Final residual = 3.866112260380303e-14, No Iterations 4

ExecutionTime = 11.26 s  ClockTime = 18 s

Time = 16.1

DICPCG:  Solving for T, Initial residual = 0.0004907403110556342, Final residual = 3.932559465431062e-14, No Iterations 4

ExecutionTime = 11.32 s  ClockTime = 18 s

Time = 16.2

DICPCG:  Solving for T, Initial residual = 0.0005026031789876779, Final residual = 3.992999833129498e-14, No Iterations 4

ExecutionTime = 11.39 s  ClockTime = 18 s

Time = 16.3

DICPCG:  Solving for T, Initial residual = 0.0005137319027125104, Final residual = 4.061967779217783e-14, No Iterations 4

ExecutionTime = 11.45 s  ClockTime = 18 s

Time = 16.4

DICPCG:  Solving for T, Initial residual = 0.0005251366296896015, Final residual = 4.142412195172571e-14, No Iterations 4

ExecutionTime = 11.53 s  ClockTime = 18 s

Time = 16.5

DICPCG:  Solving for T, Initial residual = 0.0005389264951675125, Final residual = 4.21368911826197e-14, No Iterations 4

ExecutionTime = 11.59 s  ClockTime = 18 s

Time = 16.6

DICPCG:  Solving for T, Initial residual = 0.0005519081019310793, Final residual = 4.277385716075012e-14, No Iterations 4

ExecutionTime = 11.65 s  ClockTime = 18 s

Time = 16.7

DICPCG:  Solving for T, Initial residual = 0.0005640425607786396, Final residual = 4.345921534353825e-14, No Iterations 4

ExecutionTime = 11.73 s  ClockTime = 18 s

Time = 16.8

DICPCG:  Solving for T, Initial residual = 0.0005752920799045558, Final residual = 4.412493023562406e-14, No Iterations 4

ExecutionTime = 11.8 s  ClockTime = 18 s

Time = 16.9

DICPCG:  Solving for T, Initial residual = 0.0005857671601275363, Final residual = 4.469038606688248e-14, No Iterations 4

ExecutionTime = 11.87 s  ClockTime = 19 s

Time = 17

DICPCG:  Solving for T, Initial residual = 0.0005979985543017189, Final residual = 4.515908373161082e-14, No Iterations 4

ExecutionTime = 11.93 s  ClockTime = 19 s

Time = 17.1

DICPCG:  Solving for T, Initial residual = 0.0006098506465370535, Final residual = 4.563507994352403e-14, No Iterations 4

ExecutionTime = 11.99 s  ClockTime = 19 s

Time = 17.2

DICPCG:  Solving for T, Initial residual = 0.000620692822512333, Final residual = 4.60145577753657e-14, No Iterations 4

ExecutionTime = 12.06 s  ClockTime = 19 s

Time = 17.3

DICPCG:  Solving for T, Initial residual = 0.0006304883106264002, Final residual = 4.628577808327161e-14, No Iterations 4

ExecutionTime = 12.13 s  ClockTime = 19 s

Time = 17.4

DICPCG:  Solving for T, Initial residual = 0.0006392099926791105, Final residual = 4.646805996740103e-14, No Iterations 4

ExecutionTime = 12.19 s  ClockTime = 19 s

Time = 17.5

DICPCG:  Solving for T, Initial residual = 0.0006478571570367691, Final residual = 4.662326960715925e-14, No Iterations 4

ExecutionTime = 12.25 s  ClockTime = 19 s

Time = 17.6

DICPCG:  Solving for T, Initial residual = 0.0006571389715131926, Final residual = 4.664883837590019e-14, No Iterations 4

ExecutionTime = 12.32 s  ClockTime = 19 s

Time = 17.7

DICPCG:  Solving for T, Initial residual = 0.0006652521619635371, Final residual = 4.655767392837156e-14, No Iterations 4

ExecutionTime = 12.38 s  ClockTime = 19 s

Time = 17.8

DICPCG:  Solving for T, Initial residual = 0.0006721634505927716, Final residual = 4.641601230223719e-14, No Iterations 4

ExecutionTime = 12.46 s  ClockTime = 19 s

Time = 17.9

DICPCG:  Solving for T, Initial residual = 0.0006778420247286244, Final residual = 4.614992030676168e-14, No Iterations 4

ExecutionTime = 12.52 s  ClockTime = 20 s

Time = 18

DICPCG:  Solving for T, Initial residual = 0.0006823916229450782, Final residual = 4.578226919439306e-14, No Iterations 4

ExecutionTime = 12.58 s  ClockTime = 20 s

Time = 18.1

DICPCG:  Solving for T, Initial residual = 0.0006871542572828983, Final residual = 4.532531064699711e-14, No Iterations 4

ExecutionTime = 12.64 s  ClockTime = 20 s

Time = 18.2

DICPCG:  Solving for T, Initial residual = 0.0006912894908896805, Final residual = 4.476153134542902e-14, No Iterations 4

ExecutionTime = 12.71 s  ClockTime = 20 s

Time = 18.3

DICPCG:  Solving for T, Initial residual = 0.0006940923722673827, Final residual = 4.408976871177131e-14, No Iterations 4

ExecutionTime = 12.77 s  ClockTime = 20 s

Time = 18.4

DICPCG:  Solving for T, Initial residual = 0.0006955397355475226, Final residual = 4.328472199316491e-14, No Iterations 4

ExecutionTime = 12.83 s  ClockTime = 20 s

Time = 18.5

DICPCG:  Solving for T, Initial residual = 0.0006956153174044559, Final residual = 4.235133531910339e-14, No Iterations 4

ExecutionTime = 12.9 s  ClockTime = 20 s

Time = 18.6

DICPCG:  Solving for T, Initial residual = 0.0006945761204141916, Final residual = 4.129533851636025e-14, No Iterations 4

ExecutionTime = 12.96 s  ClockTime = 20 s

Time = 18.7

DICPCG:  Solving for T, Initial residual = 0.0006935474727837411, Final residual = 4.013137013959411e-14, No Iterations 4

ExecutionTime = 13.03 s  ClockTime = 20 s

Time = 18.8

DICPCG:  Solving for T, Initial residual = 0.0006912921834459767, Final residual = 3.884889103489398e-14, No Iterations 4

ExecutionTime = 13.09 s  ClockTime = 20 s

Time = 18.9

DICPCG:  Solving for T, Initial residual = 0.0006876053889972629, Final residual = 3.744876835400672e-14, No Iterations 4

ExecutionTime = 13.16 s  ClockTime = 21 s

Time = 19

DICPCG:  Solving for T, Initial residual = 0.0006824786584357301, Final residual = 3.592553057610609e-14, No Iterations 4

ExecutionTime = 13.22 s  ClockTime = 21 s

Time = 19.1

DICPCG:  Solving for T, Initial residual = 0.0006759332477311806, Final residual = 3.427908165497993e-14, No Iterations 4

ExecutionTime = 13.29 s  ClockTime = 21 s

Time = 19.2

DICPCG:  Solving for T, Initial residual = 0.0006683100120322301, Final residual = 3.250839944928632e-14, No Iterations 4

ExecutionTime = 13.35 s  ClockTime = 21 s

Time = 19.3

DICPCG:  Solving for T, Initial residual = 0.0006603793571312287, Final residual = 3.060860200996411e-14, No Iterations 4

ExecutionTime = 13.42 s  ClockTime = 21 s

Time = 19.4

DICPCG:  Solving for T, Initial residual = 0.0006510218319198082, Final residual = 2.858527650258359e-14, No Iterations 4

ExecutionTime = 13.48 s  ClockTime = 21 s

Time = 19.5

DICPCG:  Solving for T, Initial residual = 0.0006402283028592219, Final residual = 2.645969226361645e-14, No Iterations 4

ExecutionTime = 13.55 s  ClockTime = 21 s

Time = 19.6

DICPCG:  Solving for T, Initial residual = 0.0006280094070108714, Final residual = 2.425356939861753e-14, No Iterations 4

ExecutionTime = 13.62 s  ClockTime = 21 s

Time = 19.7

DICPCG:  Solving for T, Initial residual = 0.000614435147855089, Final residual = 2.199200866036701e-14, No Iterations 4

ExecutionTime = 13.68 s  ClockTime = 21 s

Time = 19.8

DICPCG:  Solving for T, Initial residual = 0.0005999341055597607, Final residual = 1.965220752802341e-14, No Iterations 4

ExecutionTime = 13.74 s  ClockTime = 22 s

Time = 19.9

DICPCG:  Solving for T, Initial residual = 0.0005848060211779761, Final residual = 1.726844026345352e-14, No Iterations 4

ExecutionTime = 13.8 s  ClockTime = 22 s

Time = 20

DICPCG:  Solving for T, Initial residual = 0.0005683285494081355, Final residual = 1.483983415720294e-14, No Iterations 4

ExecutionTime = 13.87 s  ClockTime = 22 s

Time = 20.1

DICPCG:  Solving for T, Initial residual = 0.0005505305437965369, Final residual = 1.259079465128423e-14, No Iterations 4

ExecutionTime = 13.93 s  ClockTime = 22 s

Time = 20.2

DICPCG:  Solving for T, Initial residual = 0.0005314462576923517, Final residual = 1.160672659530241e-14, No Iterations 4

ExecutionTime = 13.99 s  ClockTime = 22 s

Time = 20.3

DICPCG:  Solving for T, Initial residual = 0.0005112067279476406, Final residual = 1.319154138400423e-14, No Iterations 4

ExecutionTime = 14.05 s  ClockTime = 22 s

Time = 20.4

DICPCG:  Solving for T, Initial residual = 0.0004904347512627622, Final residual = 1.497343535480181e-14, No Iterations 4

ExecutionTime = 14.12 s  ClockTime = 22 s

Time = 20.5

DICPCG:  Solving for T, Initial residual = 0.0004696924232806525, Final residual = 1.655678489542356e-14, No Iterations 4

ExecutionTime = 14.18 s  ClockTime = 22 s

Time = 20.6

DICPCG:  Solving for T, Initial residual = 0.0004496231998335999, Final residual = 1.81446703116349e-14, No Iterations 4

ExecutionTime = 14.24 s  ClockTime = 22 s

Time = 20.7

DICPCG:  Solving for T, Initial residual = 0.0004323782240448414, Final residual = 1.985457129924497e-14, No Iterations 4

ExecutionTime = 14.3 s  ClockTime = 22 s

Time = 20.8

DICPCG:  Solving for T, Initial residual = 0.0004255125002144396, Final residual = 2.155101434414428e-14, No Iterations 4

ExecutionTime = 14.36 s  ClockTime = 22 s

Time = 20.9

DICPCG:  Solving for T, Initial residual = 0.0004184682392101687, Final residual = 2.324151337547734e-14, No Iterations 4

ExecutionTime = 14.42 s  ClockTime = 23 s

Time = 21

DICPCG:  Solving for T, Initial residual = 0.000411063075046555, Final residual = 2.477624877325737e-14, No Iterations 4

ExecutionTime = 14.49 s  ClockTime = 23 s

Time = 21.1

DICPCG:  Solving for T, Initial residual = 0.0004027735436478684, Final residual = 2.610936968433466e-14, No Iterations 4

ExecutionTime = 14.55 s  ClockTime = 23 s

Time = 21.2

DICPCG:  Solving for T, Initial residual = 0.0003939312404860381, Final residual = 2.741236474392917e-14, No Iterations 4

ExecutionTime = 14.61 s  ClockTime = 23 s

Time = 21.3

DICPCG:  Solving for T, Initial residual = 0.0003852008988263169, Final residual = 2.878095634002144e-14, No Iterations 4

ExecutionTime = 14.67 s  ClockTime = 23 s

Time = 21.4

DICPCG:  Solving for T, Initial residual = 0.0003776988251568992, Final residual = 3.016339410026436e-14, No Iterations 4

ExecutionTime = 14.74 s  ClockTime = 23 s

Time = 21.5

DICPCG:  Solving for T, Initial residual = 0.0003774298192113895, Final residual = 3.142926262456258e-14, No Iterations 4

ExecutionTime = 14.81 s  ClockTime = 23 s

Time = 21.6

DICPCG:  Solving for T, Initial residual = 0.0003786098078762632, Final residual = 3.254907511497542e-14, No Iterations 4

ExecutionTime = 14.87 s  ClockTime = 23 s

Time = 21.7

DICPCG:  Solving for T, Initial residual = 0.0003792477042853163, Final residual = 3.351565570297704e-14, No Iterations 4

ExecutionTime = 14.93 s  ClockTime = 23 s

Time = 21.8

DICPCG:  Solving for T, Initial residual = 0.0003799038687523638, Final residual = 3.443134006044534e-14, No Iterations 4

ExecutionTime = 15 s  ClockTime = 23 s

Time = 21.9

DICPCG:  Solving for T, Initial residual = 0.000381718478343852, Final residual = 3.54303057435387e-14, No Iterations 4

ExecutionTime = 15.08 s  ClockTime = 24 s

Time = 22

DICPCG:  Solving for T, Initial residual = 0.0003895814773584294, Final residual = 3.641918879488458e-14, No Iterations 4

ExecutionTime = 15.14 s  ClockTime = 24 s

Time = 22.1

DICPCG:  Solving for T, Initial residual = 0.000397067893681027, Final residual = 3.720988261555836e-14, No Iterations 4

ExecutionTime = 15.2 s  ClockTime = 24 s

Time = 22.2

DICPCG:  Solving for T, Initial residual = 0.000403876305887819, Final residual = 3.773933752666517e-14, No Iterations 4

ExecutionTime = 15.27 s  ClockTime = 24 s

Time = 22.3

DICPCG:  Solving for T, Initial residual = 0.0004105358543911835, Final residual = 3.815449616705755e-14, No Iterations 4

ExecutionTime = 15.34 s  ClockTime = 24 s

Time = 22.4

DICPCG:  Solving for T, Initial residual = 0.0004186145107505237, Final residual = 3.861585880658241e-14, No Iterations 4

ExecutionTime = 15.4 s  ClockTime = 24 s

Time = 22.5

DICPCG:  Solving for T, Initial residual = 0.0004302661264268308, Final residual = 3.942607128415098e-14, No Iterations 4

ExecutionTime = 15.48 s  ClockTime = 24 s

Time = 22.6

DICPCG:  Solving for T, Initial residual = 0.0004408737209394927, Final residual = 4.012751035132772e-14, No Iterations 4

ExecutionTime = 15.55 s  ClockTime = 24 s

Time = 22.7

DICPCG:  Solving for T, Initial residual = 0.0004507631276997612, Final residual = 4.064144396888653e-14, No Iterations 4

ExecutionTime = 15.62 s  ClockTime = 24 s

Time = 22.8

DICPCG:  Solving for T, Initial residual = 0.0004601415986814182, Final residual = 4.130895158469141e-14, No Iterations 4

ExecutionTime = 15.69 s  ClockTime = 25 s

Time = 22.9

DICPCG:  Solving for T, Initial residual = 0.0004706436195687919, Final residual = 4.183154703420497e-14, No Iterations 4

ExecutionTime = 15.75 s  ClockTime = 25 s

Time = 23

DICPCG:  Solving for T, Initial residual = 0.0004828044437622483, Final residual = 4.220725799483618e-14, No Iterations 4

ExecutionTime = 15.82 s  ClockTime = 25 s

Time = 23.1

DICPCG:  Solving for T, Initial residual = 0.0004936536989920905, Final residual = 4.274445596913545e-14, No Iterations 4

ExecutionTime = 15.88 s  ClockTime = 25 s

Time = 23.2

DICPCG:  Solving for T, Initial residual = 0.000503266649099227, Final residual = 4.322034809212849e-14, No Iterations 4

ExecutionTime = 15.96 s  ClockTime = 25 s

Time = 23.3

DICPCG:  Solving for T, Initial residual = 0.0005119198117269063, Final residual = 4.355106159320524e-14, No Iterations 4

ExecutionTime = 16.03 s  ClockTime = 25 s

Time = 23.4

DICPCG:  Solving for T, Initial residual = 0.0005212426205464257, Final residual = 4.382921872037151e-14, No Iterations 4

ExecutionTime = 16.1 s  ClockTime = 25 s

Time = 23.5

DICPCG:  Solving for T, Initial residual = 0.0005305580305755797, Final residual = 4.39998207862343e-14, No Iterations 4

ExecutionTime = 16.17 s  ClockTime = 25 s

Time = 23.6

DICPCG:  Solving for T, Initial residual = 0.0005381897958276776, Final residual = 4.397176494039303e-14, No Iterations 4

ExecutionTime = 16.24 s  ClockTime = 25 s

Time = 23.7

DICPCG:  Solving for T, Initial residual = 0.0005442726771567345, Final residual = 4.376727655408926e-14, No Iterations 4

ExecutionTime = 16.3 s  ClockTime = 26 s

Time = 23.8

DICPCG:  Solving for T, Initial residual = 0.0005490611235030826, Final residual = 4.347061889519742e-14, No Iterations 4

ExecutionTime = 16.37 s  ClockTime = 26 s

Time = 23.9

DICPCG:  Solving for T, Initial residual = 0.0005540365775470089, Final residual = 4.296327968984125e-14, No Iterations 4

ExecutionTime = 16.45 s  ClockTime = 26 s

Time = 24

DICPCG:  Solving for T, Initial residual = 0.0005580346828076775, Final residual = 4.226449336752977e-14, No Iterations 4

ExecutionTime = 16.52 s  ClockTime = 26 s

Time = 24.1

DICPCG:  Solving for T, Initial residual = 0.000560143776485043, Final residual = 4.142518252378486e-14, No Iterations 4

ExecutionTime = 16.58 s  ClockTime = 26 s

Time = 24.2

DICPCG:  Solving for T, Initial residual = 0.000560480774617513, Final residual = 4.040721532268849e-14, No Iterations 4

ExecutionTime = 16.64 s  ClockTime = 26 s

Time = 24.3

DICPCG:  Solving for T, Initial residual = 0.0005592680442216794, Final residual = 3.917993602078468e-14, No Iterations 4

ExecutionTime = 16.7 s  ClockTime = 26 s

Time = 24.4

DICPCG:  Solving for T, Initial residual = 0.0005577609039493765, Final residual = 3.777783537698612e-14, No Iterations 4

ExecutionTime = 16.76 s  ClockTime = 26 s

Time = 24.5

DICPCG:  Solving for T, Initial residual = 0.0005547325706347466, Final residual = 3.622381291667537e-14, No Iterations 4

ExecutionTime = 16.83 s  ClockTime = 26 s

Time = 24.6

DICPCG:  Solving for T, Initial residual = 0.0005497072144954479, Final residual = 3.446331204688957e-14, No Iterations 4

ExecutionTime = 16.93 s  ClockTime = 27 s

Time = 24.7

DICPCG:  Solving for T, Initial residual = 0.0005427950494271656, Final residual = 3.25314982764176e-14, No Iterations 4

ExecutionTime = 17 s  ClockTime = 27 s

Time = 24.8

DICPCG:  Solving for T, Initial residual = 0.000534195491545102, Final residual = 3.041730735296809e-14, No Iterations 4

ExecutionTime = 17.09 s  ClockTime = 27 s

Time = 24.9

DICPCG:  Solving for T, Initial residual = 0.0005249245346410268, Final residual = 2.814434543622854e-14, No Iterations 4

ExecutionTime = 17.16 s  ClockTime = 27 s

Time = 25

DICPCG:  Solving for T, Initial residual = 0.0005139386199697547, Final residual = 2.571744082834827e-14, No Iterations 4

ExecutionTime = 17.24 s  ClockTime = 27 s

Time = 25.1

DICPCG:  Solving for T, Initial residual = 0.0005009800090283351, Final residual = 2.308743967730748e-14, No Iterations 4

ExecutionTime = 17.31 s  ClockTime = 27 s

Time = 25.2

DICPCG:  Solving for T, Initial residual = 0.0004861604610262614, Final residual = 2.03319589427258e-14, No Iterations 4

ExecutionTime = 17.39 s  ClockTime = 27 s

Time = 25.3

DICPCG:  Solving for T, Initial residual = 0.000469661526873116, Final residual = 1.749021060323057e-14, No Iterations 4

ExecutionTime = 17.46 s  ClockTime = 28 s

Time = 25.4

DICPCG:  Solving for T, Initial residual = 0.0004522815684345976, Final residual = 1.454998522861379e-14, No Iterations 4

ExecutionTime = 17.52 s  ClockTime = 28 s

Time = 25.5

DICPCG:  Solving for T, Initial residual = 0.000433286852693335, Final residual = 1.16771027010894e-14, No Iterations 4

ExecutionTime = 17.59 s  ClockTime = 28 s

Time = 25.6

DICPCG:  Solving for T, Initial residual = 0.0004124984169246753, Final residual = 9.965768021741119e-15, No Iterations 4

ExecutionTime = 17.67 s  ClockTime = 28 s

Time = 25.7

DICPCG:  Solving for T, Initial residual = 0.0003900934149048734, Final residual = 1.184706901283612e-14, No Iterations 4

ExecutionTime = 17.76 s  ClockTime = 28 s

Time = 25.8

DICPCG:  Solving for T, Initial residual = 0.000366962970572915, Final residual = 1.379056095760214e-14, No Iterations 4

ExecutionTime = 17.84 s  ClockTime = 28 s

Time = 25.9

DICPCG:  Solving for T, Initial residual = 0.0003451208250828353, Final residual = 1.573607066943954e-14, No Iterations 4

ExecutionTime = 17.92 s  ClockTime = 28 s

Time = 26

DICPCG:  Solving for T, Initial residual = 0.0003285141361227861, Final residual = 1.779678567285609e-14, No Iterations 4

ExecutionTime = 18.02 s  ClockTime = 29 s

Time = 26.1

DICPCG:  Solving for T, Initial residual = 0.0003242783886237927, Final residual = 1.975109437725391e-14, No Iterations 4

ExecutionTime = 18.12 s  ClockTime = 29 s

Time = 26.2

DICPCG:  Solving for T, Initial residual = 0.0003188955449064327, Final residual = 2.148558709413239e-14, No Iterations 4

ExecutionTime = 18.21 s  ClockTime = 29 s

Time = 26.3

DICPCG:  Solving for T, Initial residual = 0.0003123344910236887, Final residual = 2.294683689081769e-14, No Iterations 4

ExecutionTime = 18.3 s  ClockTime = 29 s

Time = 26.4

DICPCG:  Solving for T, Initial residual = 0.0003053364633413818, Final residual = 2.459085094649403e-14, No Iterations 4

ExecutionTime = 18.41 s  ClockTime = 30 s

Time = 26.5

DICPCG:  Solving for T, Initial residual = 0.000298788168505525, Final residual = 2.620688631554108e-14, No Iterations 4

ExecutionTime = 18.51 s  ClockTime = 30 s

Time = 26.6

DICPCG:  Solving for T, Initial residual = 0.0002946536700766215, Final residual = 2.763616874984676e-14, No Iterations 4

ExecutionTime = 18.59 s  ClockTime = 30 s

Time = 26.7

DICPCG:  Solving for T, Initial residual = 0.0002995914832126962, Final residual = 2.869110898012595e-14, No Iterations 4

ExecutionTime = 18.67 s  ClockTime = 30 s

Time = 26.8

DICPCG:  Solving for T, Initial residual = 0.000304080133214246, Final residual = 2.928985531334168e-14, No Iterations 4

ExecutionTime = 18.75 s  ClockTime = 30 s

Time = 26.9

DICPCG:  Solving for T, Initial residual = 0.0003086625393196979, Final residual = 2.961001794438076e-14, No Iterations 4

ExecutionTime = 18.82 s  ClockTime = 30 s

Time = 27

DICPCG:  Solving for T, Initial residual = 0.0003158316537121835, Final residual = 3.001414830584849e-14, No Iterations 4

ExecutionTime = 18.89 s  ClockTime = 30 s

Time = 27.1

DICPCG:  Solving for T, Initial residual = 0.0003290910892460336, Final residual = 3.16382862081072e-14, No Iterations 4

ExecutionTime = 18.97 s  ClockTime = 31 s

Time = 27.2

DICPCG:  Solving for T, Initial residual = 0.0003414726721340525, Final residual = 3.355669667296931e-14, No Iterations 4

ExecutionTime = 19.04 s  ClockTime = 31 s

Time = 27.3

DICPCG:  Solving for T, Initial residual = 0.0003535062676382759, Final residual = 3.554575278690377e-14, No Iterations 4

ExecutionTime = 19.12 s  ClockTime = 31 s

Time = 27.4

DICPCG:  Solving for T, Initial residual = 0.0003675191721208838, Final residual = 3.750884601167363e-14, No Iterations 4

ExecutionTime = 19.19 s  ClockTime = 31 s

Time = 27.5

DICPCG:  Solving for T, Initial residual = 0.0003851812870965822, Final residual = 3.942336605978223e-14, No Iterations 4

ExecutionTime = 19.26 s  ClockTime = 31 s

Time = 27.6

DICPCG:  Solving for T, Initial residual = 0.0004017297831245566, Final residual = 4.125345703042957e-14, No Iterations 4

ExecutionTime = 19.33 s  ClockTime = 31 s

Time = 27.7

DICPCG:  Solving for T, Initial residual = 0.0004175083962385491, Final residual = 4.291272995255305e-14, No Iterations 4

ExecutionTime = 19.41 s  ClockTime = 31 s

Time = 27.8

DICPCG:  Solving for T, Initial residual = 0.0004348455289627798, Final residual = 4.451831155203482e-14, No Iterations 4

ExecutionTime = 19.49 s  ClockTime = 31 s

Time = 27.9

DICPCG:  Solving for T, Initial residual = 0.0004532312007089313, Final residual = 4.584428646248745e-14, No Iterations 4

ExecutionTime = 19.56 s  ClockTime = 32 s

Time = 28

DICPCG:  Solving for T, Initial residual = 0.0004702195777085567, Final residual = 4.729160774383693e-14, No Iterations 4

ExecutionTime = 19.63 s  ClockTime = 32 s

Time = 28.1

DICPCG:  Solving for T, Initial residual = 0.0004861607461589894, Final residual = 4.855995867380978e-14, No Iterations 4

ExecutionTime = 19.7 s  ClockTime = 32 s

Time = 28.2

DICPCG:  Solving for T, Initial residual = 0.0005031219899673309, Final residual = 4.954540483486839e-14, No Iterations 4

ExecutionTime = 19.77 s  ClockTime = 32 s

Time = 28.3

DICPCG:  Solving for T, Initial residual = 0.0005192491796566206, Final residual = 5.033836374455657e-14, No Iterations 4

ExecutionTime = 19.84 s  ClockTime = 32 s

Time = 28.4

DICPCG:  Solving for T, Initial residual = 0.0005334601431715957, Final residual = 5.081992987978774e-14, No Iterations 4

ExecutionTime = 19.91 s  ClockTime = 32 s

Time = 28.5

DICPCG:  Solving for T, Initial residual = 0.0005462067144799993, Final residual = 5.101248423943365e-14, No Iterations 4

ExecutionTime = 19.98 s  ClockTime = 32 s

Time = 28.6

DICPCG:  Solving for T, Initial residual = 0.0005593670386665312, Final residual = 5.097051659774613e-14, No Iterations 4

ExecutionTime = 20.05 s  ClockTime = 32 s

Time = 28.7

DICPCG:  Solving for T, Initial residual = 0.000570342131428704, Final residual = 5.061225437035416e-14, No Iterations 4

ExecutionTime = 20.14 s  ClockTime = 33 s

Time = 28.8

DICPCG:  Solving for T, Initial residual = 0.0005790314183517374, Final residual = 4.994467121396694e-14, No Iterations 4

ExecutionTime = 20.25 s  ClockTime = 33 s

Time = 28.9

DICPCG:  Solving for T, Initial residual = 0.0005862042169672415, Final residual = 4.902322008792244e-14, No Iterations 4

ExecutionTime = 20.32 s  ClockTime = 33 s

Time = 29

DICPCG:  Solving for T, Initial residual = 0.0005923129048521852, Final residual = 4.777815305152163e-14, No Iterations 4

ExecutionTime = 20.4 s  ClockTime = 33 s

Time = 29.1

DICPCG:  Solving for T, Initial residual = 0.000595727528079393, Final residual = 4.620069794658905e-14, No Iterations 4

ExecutionTime = 20.47 s  ClockTime = 33 s

Time = 29.2

DICPCG:  Solving for T, Initial residual = 0.000596606006679442, Final residual = 4.434275961097514e-14, No Iterations 4

ExecutionTime = 20.54 s  ClockTime = 33 s

Time = 29.3

DICPCG:  Solving for T, Initial residual = 0.0005960250024975042, Final residual = 4.216016980316709e-14, No Iterations 4

ExecutionTime = 20.61 s  ClockTime = 34 s

Time = 29.4

DICPCG:  Solving for T, Initial residual = 0.0005930068271370698, Final residual = 3.965330360604532e-14, No Iterations 4

ExecutionTime = 20.67 s  ClockTime = 34 s

Time = 29.5

DICPCG:  Solving for T, Initial residual = 0.0005871681056703212, Final residual = 3.68363692753995e-14, No Iterations 4

ExecutionTime = 20.73 s  ClockTime = 34 s

Time = 29.6

DICPCG:  Solving for T, Initial residual = 0.000578983650438587, Final residual = 3.373862456042575e-14, No Iterations 4

ExecutionTime = 20.8 s  ClockTime = 34 s

Time = 29.7

DICPCG:  Solving for T, Initial residual = 0.0005687541183842468, Final residual = 3.033352390397418e-14, No Iterations 4

ExecutionTime = 20.86 s  ClockTime = 34 s

Time = 29.8

DICPCG:  Solving for T, Initial residual = 0.0005556344325303062, Final residual = 2.662854656877333e-14, No Iterations 4

ExecutionTime = 20.92 s  ClockTime = 34 s

Time = 29.9

DICPCG:  Solving for T, Initial residual = 0.0005397503255997763, Final residual = 2.274010859266526e-14, No Iterations 4

ExecutionTime = 20.98 s  ClockTime = 34 s

Time = 30

DICPCG:  Solving for T, Initial residual = 0.000521794235946862, Final residual = 1.866183389326536e-14, No Iterations 4

ExecutionTime = 21.05 s  ClockTime = 34 s

Time = 30.1

DICPCG:  Solving for T, Initial residual = 0.0005011251866691731, Final residual = 1.427452635761727e-14, No Iterations 4

ExecutionTime = 21.12 s  ClockTime = 34 s

Time = 30.2

DICPCG:  Solving for T, Initial residual = 0.0004777854811852093, Final residual = 1.223030444801222e-14, No Iterations 4

ExecutionTime = 21.18 s  ClockTime = 34 s

Time = 30.3

DICPCG:  Solving for T, Initial residual = 0.0004522719014867544, Final residual = 1.52213894072617e-14, No Iterations 4

ExecutionTime = 21.26 s  ClockTime = 35 s

Time = 30.4

DICPCG:  Solving for T, Initial residual = 0.0004249569776997739, Final residual = 1.785882787438149e-14, No Iterations 4

ExecutionTime = 21.33 s  ClockTime = 35 s

Time = 30.5

DICPCG:  Solving for T, Initial residual = 0.0003993024154956446, Final residual = 2.067698634803887e-14, No Iterations 4

ExecutionTime = 21.38 s  ClockTime = 35 s

Time = 30.6

DICPCG:  Solving for T, Initial residual = 0.0003914919596940031, Final residual = 2.361437811415254e-14, No Iterations 4

ExecutionTime = 21.45 s  ClockTime = 35 s

Time = 30.7

DICPCG:  Solving for T, Initial residual = 0.000389831695111126, Final residual = 2.608861436117072e-14, No Iterations 4

ExecutionTime = 21.51 s  ClockTime = 35 s

Time = 30.8

DICPCG:  Solving for T, Initial residual = 0.0003862131266562902, Final residual = 2.821600293426739e-14, No Iterations 4

ExecutionTime = 21.58 s  ClockTime = 35 s

Time = 30.9

DICPCG:  Solving for T, Initial residual = 0.0003807722549911305, Final residual = 3.030606330193479e-14, No Iterations 4

ExecutionTime = 21.64 s  ClockTime = 35 s

Time = 31

DICPCG:  Solving for T, Initial residual = 0.0003740668473226822, Final residual = 3.273285729443757e-14, No Iterations 4

ExecutionTime = 21.7 s  ClockTime = 35 s

Time = 31.1

DICPCG:  Solving for T, Initial residual = 0.0003686170778460209, Final residual = 3.512175070062593e-14, No Iterations 4

ExecutionTime = 21.76 s  ClockTime = 35 s

Time = 31.2

DICPCG:  Solving for T, Initial residual = 0.0003758588957425906, Final residual = 3.736215999124368e-14, No Iterations 4

ExecutionTime = 21.82 s  ClockTime = 35 s

Time = 31.3

DICPCG:  Solving for T, Initial residual = 0.0003848287507411339, Final residual = 3.93354501149639e-14, No Iterations 4

ExecutionTime = 21.89 s  ClockTime = 35 s

Time = 31.4

DICPCG:  Solving for T, Initial residual = 0.0003924319658689448, Final residual = 4.095811511678757e-14, No Iterations 4

ExecutionTime = 21.96 s  ClockTime = 36 s

Time = 31.5

DICPCG:  Solving for T, Initial residual = 0.000401207753419475, Final residual = 4.212829429404741e-14, No Iterations 4

ExecutionTime = 22.02 s  ClockTime = 36 s

Time = 31.6

DICPCG:  Solving for T, Initial residual = 0.0004197964365397403, Final residual = 4.325284985497896e-14, No Iterations 4

ExecutionTime = 22.09 s  ClockTime = 36 s

Time = 31.7

DICPCG:  Solving for T, Initial residual = 0.0004370033077680089, Final residual = 4.535518050800082e-14, No Iterations 4

ExecutionTime = 22.15 s  ClockTime = 36 s

Time = 31.8

DICPCG:  Solving for T, Initial residual = 0.0004526089593708762, Final residual = 4.693082313336571e-14, No Iterations 4

ExecutionTime = 22.21 s  ClockTime = 36 s

Time = 31.9

DICPCG:  Solving for T, Initial residual = 0.000469166897260646, Final residual = 4.88843930757774e-14, No Iterations 4

ExecutionTime = 22.27 s  ClockTime = 36 s

Time = 32

DICPCG:  Solving for T, Initial residual = 0.0004913503390277055, Final residual = 5.032367129587042e-14, No Iterations 4

ExecutionTime = 22.35 s  ClockTime = 36 s

Time = 32.1

DICPCG:  Solving for T, Initial residual = 0.0005110105981023838, Final residual = 5.193736876047689e-14, No Iterations 4

ExecutionTime = 22.44 s  ClockTime = 36 s

Time = 32.2

DICPCG:  Solving for T, Initial residual = 0.0005284378425332482, Final residual = 5.322523825476966e-14, No Iterations 4

ExecutionTime = 22.52 s  ClockTime = 37 s

Time = 32.3

DICPCG:  Solving for T, Initial residual = 0.000546162411400089, Final residual = 5.425373210461738e-14, No Iterations 4

ExecutionTime = 22.6 s  ClockTime = 37 s

Time = 32.4

DICPCG:  Solving for T, Initial residual = 0.0005660022759621695, Final residual = 5.512866751975771e-14, No Iterations 4

ExecutionTime = 22.69 s  ClockTime = 37 s

Time = 32.5

DICPCG:  Solving for T, Initial residual = 0.0005826020779756259, Final residual = 5.580254314151605e-14, No Iterations 4

ExecutionTime = 22.77 s  ClockTime = 37 s

Time = 32.6

DICPCG:  Solving for T, Initial residual = 0.0005962725047706468, Final residual = 5.637878515214543e-14, No Iterations 4

ExecutionTime = 22.86 s  ClockTime = 37 s

Time = 32.7

DICPCG:  Solving for T, Initial residual = 0.0006091300904816191, Final residual = 5.656939111833155e-14, No Iterations 4

ExecutionTime = 22.93 s  ClockTime = 37 s

Time = 32.8

DICPCG:  Solving for T, Initial residual = 0.0006217264031274672, Final residual = 5.627160715531804e-14, No Iterations 4

ExecutionTime = 23 s  ClockTime = 37 s

Time = 32.9

DICPCG:  Solving for T, Initial residual = 0.0006305387536718289, Final residual = 5.56372847804304e-14, No Iterations 4

ExecutionTime = 23.06 s  ClockTime = 37 s

Time = 33

DICPCG:  Solving for T, Initial residual = 0.0006358519613631464, Final residual = 5.457669668609961e-14, No Iterations 4

ExecutionTime = 23.13 s  ClockTime = 38 s

Time = 33.1

DICPCG:  Solving for T, Initial residual = 0.0006393116967751099, Final residual = 5.302991825003753e-14, No Iterations 4

ExecutionTime = 23.18 s  ClockTime = 38 s

Time = 33.2

DICPCG:  Solving for T, Initial residual = 0.0006411567884745955, Final residual = 5.109650147264488e-14, No Iterations 4

ExecutionTime = 23.25 s  ClockTime = 38 s

Time = 33.3

DICPCG:  Solving for T, Initial residual = 0.0006389244583013671, Final residual = 4.872404589224495e-14, No Iterations 4

ExecutionTime = 23.32 s  ClockTime = 38 s

Time = 33.4

DICPCG:  Solving for T, Initial residual = 0.0006328635650274237, Final residual = 4.585867791958251e-14, No Iterations 4

ExecutionTime = 23.38 s  ClockTime = 38 s

Time = 33.5

DICPCG:  Solving for T, Initial residual = 0.0006241593766655833, Final residual = 4.260823299115122e-14, No Iterations 4

ExecutionTime = 23.46 s  ClockTime = 38 s

Time = 33.6

DICPCG:  Solving for T, Initial residual = 0.0006132552398594986, Final residual = 3.888268309125603e-14, No Iterations 4

ExecutionTime = 23.54 s  ClockTime = 38 s

Time = 33.7

DICPCG:  Solving for T, Initial residual = 0.000598291663697382, Final residual = 3.471861763949382e-14, No Iterations 4

ExecutionTime = 23.62 s  ClockTime = 38 s

Time = 33.8

DICPCG:  Solving for T, Initial residual = 0.000579504732152543, Final residual = 3.021211908249808e-14, No Iterations 4

ExecutionTime = 23.68 s  ClockTime = 39 s

Time = 33.9

DICPCG:  Solving for T, Initial residual = 0.0005576671002827132, Final residual = 2.531657589644149e-14, No Iterations 4

ExecutionTime = 23.77 s  ClockTime = 39 s

Time = 34

DICPCG:  Solving for T, Initial residual = 0.0005336703812352665, Final residual = 2.004121955853333e-14, No Iterations 4

ExecutionTime = 23.83 s  ClockTime = 39 s

Time = 34.1

DICPCG:  Solving for T, Initial residual = 0.0005059897347423423, Final residual = 1.406508230426936e-14, No Iterations 4

ExecutionTime = 23.9 s  ClockTime = 39 s

Time = 34.2

DICPCG:  Solving for T, Initial residual = 0.0004748686275173789, Final residual = 1.322505719866279e-14, No Iterations 4

ExecutionTime = 23.98 s  ClockTime = 39 s

Time = 34.3

DICPCG:  Solving for T, Initial residual = 0.0004407938934778209, Final residual = 1.663457292078826e-14, No Iterations 4

ExecutionTime = 24.06 s  ClockTime = 39 s

Time = 34.4

DICPCG:  Solving for T, Initial residual = 0.0004049552387749986, Final residual = 1.971130975654537e-14, No Iterations 4

ExecutionTime = 24.14 s  ClockTime = 39 s

Time = 34.5

DICPCG:  Solving for T, Initial residual = 0.0003833870649579073, Final residual = 2.303045893663264e-14, No Iterations 4

ExecutionTime = 24.2 s  ClockTime = 39 s

Time = 34.6

DICPCG:  Solving for T, Initial residual = 0.0003816179375853214, Final residual = 2.600145172769059e-14, No Iterations 4

ExecutionTime = 24.27 s  ClockTime = 40 s

Time = 34.7

DICPCG:  Solving for T, Initial residual = 0.0003774848103277339, Final residual = 2.839892195772432e-14, No Iterations 4

ExecutionTime = 24.34 s  ClockTime = 40 s

Time = 34.8

DICPCG:  Solving for T, Initial residual = 0.0003716277527704018, Final residual = 3.016841053667691e-14, No Iterations 4

ExecutionTime = 24.4 s  ClockTime = 40 s

Time = 34.9

DICPCG:  Solving for T, Initial residual = 0.0003635694569292272, Final residual = 3.29041679332294e-14, No Iterations 4

ExecutionTime = 24.46 s  ClockTime = 40 s

Time = 35

DICPCG:  Solving for T, Initial residual = 0.0003543041900030625, Final residual = 3.523190653469261e-14, No Iterations 4

ExecutionTime = 24.54 s  ClockTime = 40 s

Time = 35.1

DICPCG:  Solving for T, Initial residual = 0.0003652598969722207, Final residual = 3.653351342875815e-14, No Iterations 4

ExecutionTime = 24.62 s  ClockTime = 40 s

Time = 35.2

DICPCG:  Solving for T, Initial residual = 0.0003757642348220336, Final residual = 3.69483106156632e-14, No Iterations 4

ExecutionTime = 24.72 s  ClockTime = 40 s

Time = 35.3

DICPCG:  Solving for T, Initial residual = 0.0003843804091625446, Final residual = 3.741146120763075e-14, No Iterations 4

ExecutionTime = 24.79 s  ClockTime = 40 s

Time = 35.4

DICPCG:  Solving for T, Initial residual = 0.0004000790131448605, Final residual = 3.988545063607484e-14, No Iterations 4

ExecutionTime = 24.85 s  ClockTime = 41 s

Time = 35.5

DICPCG:  Solving for T, Initial residual = 0.0004222199680514593, Final residual = 4.320434080703694e-14, No Iterations 4

ExecutionTime = 24.93 s  ClockTime = 41 s

Time = 35.6

DICPCG:  Solving for T, Initial residual = 0.0004416452351141524, Final residual = 4.669160680495684e-14, No Iterations 4

ExecutionTime = 24.99 s  ClockTime = 41 s

Time = 35.7

DICPCG:  Solving for T, Initial residual = 0.0004594408465294133, Final residual = 4.962018989848652e-14, No Iterations 4

ExecutionTime = 25.06 s  ClockTime = 41 s

Time = 35.8

DICPCG:  Solving for T, Initial residual = 0.0004870625223840704, Final residual = 5.287146547689844e-14, No Iterations 4

ExecutionTime = 25.13 s  ClockTime = 41 s

Time = 35.9

DICPCG:  Solving for T, Initial residual = 0.0005114851825303495, Final residual = 5.534649367131162e-14, No Iterations 4

ExecutionTime = 25.19 s  ClockTime = 41 s

Time = 36

DICPCG:  Solving for T, Initial residual = 0.0005324286293504118, Final residual = 5.767446633755217e-14, No Iterations 4

ExecutionTime = 25.26 s  ClockTime = 41 s

Time = 36.1

DICPCG:  Solving for T, Initial residual = 0.00055621998084702, Final residual = 5.936148176643627e-14, No Iterations 4

ExecutionTime = 25.34 s  ClockTime = 41 s

Time = 36.2

DICPCG:  Solving for T, Initial residual = 0.000580089910459185, Final residual = 6.086182486461341e-14, No Iterations 4

ExecutionTime = 25.42 s  ClockTime = 41 s

Time = 36.3

DICPCG:  Solving for T, Initial residual = 0.0006000090249073614, Final residual = 6.22362279755641e-14, No Iterations 4

ExecutionTime = 25.49 s  ClockTime = 42 s

Time = 36.4

DICPCG:  Solving for T, Initial residual = 0.0006175033526203281, Final residual = 6.294859413466997e-14, No Iterations 4

ExecutionTime = 25.56 s  ClockTime = 42 s

Time = 36.5

DICPCG:  Solving for T, Initial residual = 0.0006361588352576885, Final residual = 6.324093463116201e-14, No Iterations 4

ExecutionTime = 25.63 s  ClockTime = 42 s

Time = 36.6

DICPCG:  Solving for T, Initial residual = 0.0006502945983687409, Final residual = 6.287074390601806e-14, No Iterations 4

ExecutionTime = 25.69 s  ClockTime = 42 s

Time = 36.7

DICPCG:  Solving for T, Initial residual = 0.0006599092230771924, Final residual = 6.192890388645586e-14, No Iterations 4

ExecutionTime = 25.76 s  ClockTime = 42 s

Time = 36.8

DICPCG:  Solving for T, Initial residual = 0.0006695810518751834, Final residual = 6.046886857599637e-14, No Iterations 4

ExecutionTime = 25.83 s  ClockTime = 42 s

Time = 36.9

DICPCG:  Solving for T, Initial residual = 0.0006748386008533882, Final residual = 5.836240025261137e-14, No Iterations 4

ExecutionTime = 25.92 s  ClockTime = 42 s

Time = 37

DICPCG:  Solving for T, Initial residual = 0.0006750644450418533, Final residual = 5.569396048535558e-14, No Iterations 4

ExecutionTime = 26.01 s  ClockTime = 42 s

Time = 37.1

DICPCG:  Solving for T, Initial residual = 0.000672664816899322, Final residual = 5.242871923452295e-14, No Iterations 4

ExecutionTime = 26.09 s  ClockTime = 43 s

Time = 37.2

DICPCG:  Solving for T, Initial residual = 0.0006668153188880731, Final residual = 4.854659791305041e-14, No Iterations 4

ExecutionTime = 26.16 s  ClockTime = 43 s

Time = 37.3

DICPCG:  Solving for T, Initial residual = 0.0006558884385971265, Final residual = 4.408577255521644e-14, No Iterations 4

ExecutionTime = 26.22 s  ClockTime = 43 s

Time = 37.4

DICPCG:  Solving for T, Initial residual = 0.0006410583599474495, Final residual = 3.906410047870443e-14, No Iterations 4

ExecutionTime = 26.29 s  ClockTime = 43 s

Time = 37.5

DICPCG:  Solving for T, Initial residual = 0.0006229926202830421, Final residual = 3.356378053321415e-14, No Iterations 4

ExecutionTime = 26.37 s  ClockTime = 43 s

Time = 37.6

DICPCG:  Solving for T, Initial residual = 0.0006001219024071883, Final residual = 2.754505957995747e-14, No Iterations 4

ExecutionTime = 26.45 s  ClockTime = 43 s

Time = 37.7

DICPCG:  Solving for T, Initial residual = 0.0005732094451472639, Final residual = 2.116246163740381e-14, No Iterations 4

ExecutionTime = 26.53 s  ClockTime = 43 s

Time = 37.8

DICPCG:  Solving for T, Initial residual = 0.000543302893330506, Final residual = 1.380320086133854e-14, No Iterations 4

ExecutionTime = 26.61 s  ClockTime = 43 s

Time = 37.9

DICPCG:  Solving for T, Initial residual = 0.0005091393274711916, Final residual = 1.718852422896726e-14, No Iterations 4

ExecutionTime = 26.68 s  ClockTime = 44 s

Time = 38

DICPCG:  Solving for T, Initial residual = 0.0004714150726728279, Final residual = 2.083341136586577e-14, No Iterations 4

ExecutionTime = 26.75 s  ClockTime = 44 s

Time = 38.1

DICPCG:  Solving for T, Initial residual = 0.0004311752594041542, Final residual = 2.456241902758377e-14, No Iterations 4

ExecutionTime = 26.82 s  ClockTime = 44 s

Time = 38.2

DICPCG:  Solving for T, Initial residual = 0.0004263549557985929, Final residual = 2.87009772565558e-14, No Iterations 4

ExecutionTime = 26.89 s  ClockTime = 44 s

Time = 38.3

DICPCG:  Solving for T, Initial residual = 0.0004259935644499532, Final residual = 3.16091528943779e-14, No Iterations 4

ExecutionTime = 26.95 s  ClockTime = 44 s

Time = 38.4

DICPCG:  Solving for T, Initial residual = 0.0004230331640226326, Final residual = 3.38663221307042e-14, No Iterations 4

ExecutionTime = 27.01 s  ClockTime = 44 s

Time = 38.5

DICPCG:  Solving for T, Initial residual = 0.0004168061522468251, Final residual = 3.634662876576364e-14, No Iterations 4

ExecutionTime = 27.08 s  ClockTime = 44 s

Time = 38.6

DICPCG:  Solving for T, Initial residual = 0.0004077820915165763, Final residual = 3.95360589676685e-14, No Iterations 4

ExecutionTime = 27.16 s  ClockTime = 44 s

Time = 38.7

DICPCG:  Solving for T, Initial residual = 0.0004067186755494765, Final residual = 4.2404661053273e-14, No Iterations 4

ExecutionTime = 27.25 s  ClockTime = 45 s

Time = 38.8

DICPCG:  Solving for T, Initial residual = 0.0004202154116558112, Final residual = 4.457757483549526e-14, No Iterations 4

ExecutionTime = 27.33 s  ClockTime = 45 s

Time = 38.9

DICPCG:  Solving for T, Initial residual = 0.0004311604273035575, Final residual = 4.580030310581573e-14, No Iterations 4

ExecutionTime = 27.39 s  ClockTime = 45 s

Time = 39

DICPCG:  Solving for T, Initial residual = 0.0004386870859866755, Final residual = 4.642090860277271e-14, No Iterations 4

ExecutionTime = 27.46 s  ClockTime = 45 s

Time = 39.1

DICPCG:  Solving for T, Initial residual = 0.000459398538544986, Final residual = 4.893891024889688e-14, No Iterations 4

ExecutionTime = 27.52 s  ClockTime = 45 s

Time = 39.2

DICPCG:  Solving for T, Initial residual = 0.0004804571672622594, Final residual = 5.100054205868923e-14, No Iterations 4

ExecutionTime = 27.59 s  ClockTime = 45 s

Time = 39.3

DICPCG:  Solving for T, Initial residual = 0.000497458465454406, Final residual = 5.31310022216114e-14, No Iterations 4

ExecutionTime = 27.65 s  ClockTime = 45 s

Time = 39.4

DICPCG:  Solving for T, Initial residual = 0.0005141720384240692, Final residual = 5.491590439964175e-14, No Iterations 4

ExecutionTime = 27.71 s  ClockTime = 45 s

Time = 39.5

DICPCG:  Solving for T, Initial residual = 0.0005365533590338591, Final residual = 5.64271897786909e-14, No Iterations 4

ExecutionTime = 27.78 s  ClockTime = 45 s

Time = 39.6

DICPCG:  Solving for T, Initial residual = 0.0005550163284259877, Final residual = 5.756079715771084e-14, No Iterations 4

ExecutionTime = 27.85 s  ClockTime = 45 s

Time = 39.7

DICPCG:  Solving for T, Initial residual = 0.0005685124220878859, Final residual = 5.803857769510851e-14, No Iterations 4

ExecutionTime = 27.92 s  ClockTime = 46 s

Time = 39.8

DICPCG:  Solving for T, Initial residual = 0.0005830252464566472, Final residual = 5.820487496587231e-14, No Iterations 4

ExecutionTime = 28.01 s  ClockTime = 46 s

Time = 39.9

DICPCG:  Solving for T, Initial residual = 0.0005964506069093743, Final residual = 5.804996659195793e-14, No Iterations 4

ExecutionTime = 28.07 s  ClockTime = 46 s

Time = 40

DICPCG:  Solving for T, Initial residual = 0.0006045974037394395, Final residual = 5.747417576767666e-14, No Iterations 4

ExecutionTime = 28.14 s  ClockTime = 46 s

Time = 40.1

DICPCG:  Solving for T, Initial residual = 0.0006074612024920134, Final residual = 5.625019566139012e-14, No Iterations 4

ExecutionTime = 28.2 s  ClockTime = 46 s

Time = 40.2

DICPCG:  Solving for T, Initial residual = 0.0006105175600445248, Final residual = 5.427705618928197e-14, No Iterations 4

ExecutionTime = 28.26 s  ClockTime = 46 s

Time = 40.3

DICPCG:  Solving for T, Initial residual = 0.0006091282353128398, Final residual = 5.176674584830382e-14, No Iterations 4

ExecutionTime = 28.32 s  ClockTime = 46 s

Time = 40.4

DICPCG:  Solving for T, Initial residual = 0.0006020680109696738, Final residual = 4.854645469628755e-14, No Iterations 4

ExecutionTime = 28.39 s  ClockTime = 46 s

Time = 40.5

DICPCG:  Solving for T, Initial residual = 0.0005903282175112337, Final residual = 4.465241551078341e-14, No Iterations 4

ExecutionTime = 28.46 s  ClockTime = 46 s

Time = 40.6

DICPCG:  Solving for T, Initial residual = 0.0005766416697446351, Final residual = 4.016743052193769e-14, No Iterations 4

ExecutionTime = 28.52 s  ClockTime = 47 s

Time = 40.7

DICPCG:  Solving for T, Initial residual = 0.0005581302125542042, Final residual = 3.498294708456867e-14, No Iterations 4

ExecutionTime = 28.58 s  ClockTime = 47 s

Time = 40.8

DICPCG:  Solving for T, Initial residual = 0.0005343907835904929, Final residual = 2.930792891268972e-14, No Iterations 4

ExecutionTime = 28.65 s  ClockTime = 47 s

Time = 40.9

DICPCG:  Solving for T, Initial residual = 0.0005066644666849996, Final residual = 2.303058950565656e-14, No Iterations 4

ExecutionTime = 28.73 s  ClockTime = 47 s

Time = 41

DICPCG:  Solving for T, Initial residual = 0.0004764268935252016, Final residual = 1.590312639261955e-14, No Iterations 4

[...]

ExecutionTime = 82.01000000000001 s  ClockTime = 139 s

Time = 0.9

ExecutionTime = 82.02 s  ClockTime = 139 s

Time = 1

ExecutionTime = 82.02 s  ClockTime = 139 s


Field size = 10.
Sampling ONLY the last timestep



Sampling done 

SolveT0 ENDED

T0 computed
Time difference = 20534[microseconds]
Weights = 

15
(
-675676.3372054992
-2697257.978051395
-3367428.712973129
-2497180.326369628
-224381.2577848279
601741.8796924261
-1344014.018476787
-1925629.189233688
-962117.8345802852
1390137.629553871
2550576.983133695
777333.5911844183
322267.6795305789
1342326.891076567
3675306.505409164
)

Reconstructing field T

Exporting solution in the time domain (22, 23]


SIMPLE: convergence criteria
    field T	 tolerance 1e-12

Ready for new computation

Field size = 10.
Sampling ONLY the last timestep



Sampling done 

Tcomp = 
857.8091173836019 864.0321850216246 883.1559466440826 915.0895220058987  959.670642450709 914.1317597957034 920.5118775916462 939.7056182200773 971.6117361546569 1016.071519948493 990.2233513335266 996.7482549011324 1015.976970241528  1047.80381997847 1092.080775341498
TmeasShort = 
857.7503074263539 864.2355283666525 883.3868960213284 915.2086527964449 959.6870609809625 913.8949271819438 920.3801481217298 939.5315157763097 971.3532725516073  1015.83168073661 990.3681975020297 996.8534184419307 1016.004786096545 1047.826542871798 1092.304951056669
J = 0.3256805658296644

Time sample 24
debug: T0field.size() = 44
Reconstructing field T

Exporting solution in the time domain (23, 24]


SIMPLE: convergence criteria
    field T	 tolerance 1e-12

Ready for new computation
Previous step was reduced
Projection error Points = 7.139034719584558e-11
Using REDUCED T0

Solving REDUCED T0 problem
Setting endTime to offlineEndTime

SIMPLE: convergence criteria
    field T	 tolerance 1e-12

Ready for new computation
Ready for new offline computation
Time = 0.1

ExecutionTime = 83.08 s  ClockTime = 141 s

Time = 0.2

ExecutionTime = 83.08 s  ClockTime = 141 s

Time = 0.3

ExecutionTime = 83.08 s  ClockTime = 141 s

Time = 0.4

ExecutionTime = 83.08 s  ClockTime = 141 s

Time = 0.5

ExecutionTime = 83.08 s  ClockTime = 141 s

Time = 0.6

ExecutionTime = 83.09 s  ClockTime = 141 s

Time = 0.7

ExecutionTime = 83.09 s  ClockTime = 141 s

Time = 0.8

ExecutionTime = 83.09 s  ClockTime = 141 s

Time = 0.9

ExecutionTime = 83.09 s  ClockTime = 141 s

Time = 1

ExecutionTime = 83.09 s  ClockTime = 141 s


Field size = 10.
Sampling ONLY the last timestep



Sampling done 

SolveT0 ENDED

T0 computed
Time difference = 15645[microseconds]
Weights = 

15
(
-1661757.274574683
-2460282.817273695
-2659318.913784743
-2176230.653624767
-1071758.396779987
-166299.485676138
-856541.8041756612
-951654.1245422111
-382360.0678184389
775231.7083974098
1622895.124173451
1080184.442142419
1102494.108020532
1739268.097236368
2904935.737705043
)

Reconstructing field T

Exporting solution in the time domain (23, 24]


SIMPLE: convergence criteria
    field T	 tolerance 1e-12

Ready for new computation

Field size = 10.
Sampling ONLY the last timestep



Sampling done 

Tcomp = 
861.5045782226476 868.0291427416544 887.4435782699712 919.6724432889212 964.5905371633654 918.2280254988088 924.8688611927139 944.3358115962174 976.5455894182596 1021.375523326313 994.9669936486202 1001.710411919633 1021.200945647122 1053.352421682728 1098.049966369358
TmeasShort = 
861.4781450522479 868.2077884720828 887.6420216202534 919.7850869028873 964.6232466084748 918.0002297867188 924.7298732060596  944.164106354139 976.3071716369457 1021.145331343002 995.0882480507811 1001.817891470233 1021.252124618346 1053.395189901109 1098.233349607038
J = 0.3002524738877048

Time sample 25
debug: T0field.size() = 44
Reconstructing field T

Exporting solution in the time domain (24, 25]


SIMPLE: convergence criteria
    field T	 tolerance 1e-12

Ready for new computation
Previous step was reduced
Projection error Points = 8.062484912747443e-11
Using REDUCED T0

Solving REDUCED T0 problem
Setting endTime to offlineEndTime

SIMPLE: convergence criteria
    field T	 tolerance 1e-12

Ready for new computation
Ready for new offline computation
Time = 0.1

ExecutionTime = 84.15000000000001 s  ClockTime = 143 s

Time = 0.2

ExecutionTime = 84.15000000000001 s  ClockTime = 143 s

Time = 0.3

ExecutionTime = 84.15000000000001 s  ClockTime = 143 s

Time = 0.4

ExecutionTime = 84.15000000000001 s  ClockTime = 143 s

Time = 0.5

ExecutionTime = 84.15000000000001 s  ClockTime = 143 s

Time = 0.6

ExecutionTime = 84.15000000000001 s  ClockTime = 143 s

Time = 0.7

ExecutionTime = 84.16 s  ClockTime = 143 s

Time = 0.8

ExecutionTime = 84.16 s  ClockTime = 143 s

Time = 0.9

ExecutionTime = 84.16 s  ClockTime = 143 s

Time = 1

ExecutionTime = 84.16 s  ClockTime = 143 s


Field size = 10.
Sampling ONLY the last timestep



Sampling done 

SolveT0 ENDED

T0 computed
Time difference = 17348[microseconds]
Weights = 

15
(
-2518933.177274781
-2070336.758011316
-1797915.592095404
-1728428.554764558
-1842953.410272575
-905054.616529918
-323365.2606937486
61296.47169614839
204452.3143534265
113739.2481664599
613366.0588411092
1308632.523268261
1794220.012474919
2011215.105550314
1954836.585200681
)

Reconstructing field T

Exporting solution in the time domain (24, 25]


SIMPLE: convergence criteria
    field T	 tolerance 1e-12

Ready for new computation

Field size = 10.
Sampling ONLY the last timestep



Sampling done 

Tcomp = 
865.9515348818677 872.8694374208364 892.7304501589209 925.4367433149243 970.8451273774604 923.2560119084319  930.304553433324 950.2256399839498 982.9123919047329 1028.224244794272 1000.659635464606 1007.817335041607 1027.761736434368 1060.383218309512 1105.549936285174
TmeasShort = 
865.9474454299987 873.1125559062016 892.9953217835134 925.5999854681108 970.9128092478358 922.9207361901618 930.0858466658881 949.9686125431133 982.5732762278768 1027.886100008053 1000.817401605161 1007.982512080995 1027.865277958253 1060.469941642973 1105.782765423027
J = 0.4303431297492027

Time sample 26
debug: T0field.size() = 44
Reconstructing field T

Exporting solution in the time domain (25, 26]


SIMPLE: convergence criteria
    field T	 tolerance 1e-12

Ready for new computation
Previous step was reduced
Projection error Points = 1.50999637717869e-10
Using REDUCED T0

Solving REDUCED T0 problem
Setting endTime to offlineEndTime

SIMPLE: convergence criteria
    field T	 tolerance 1e-12

Ready for new computation
Ready for new offline computation
Time = 0.1

ExecutionTime = 85.26000000000001 s  ClockTime = 145 s

Time = 0.2

ExecutionTime = 85.27 s  ClockTime = 145 s

Time = 0.3

ExecutionTime = 85.27 s  ClockTime = 145 s

Time = 0.4

ExecutionTime = 85.27 s  ClockTime = 145 s

Time = 0.5

ExecutionTime = 85.27 s  ClockTime = 145 s

Time = 0.6

ExecutionTime = 85.27 s  ClockTime = 145 s

Time = 0.7

ExecutionTime = 85.27 s  ClockTime = 145 s

Time = 0.8

ExecutionTime = 85.27 s  ClockTime = 145 s

Time = 0.9

ExecutionTime = 85.27 s  ClockTime = 145 s

Time = 1

ExecutionTime = 85.27 s  ClockTime = 145 s


Field size = 10.
Sampling ONLY the last timestep



Sampling done 

SolveT0 ENDED

T0 computed
Time difference = 17064[microseconds]
Weights = 

15
(
-2904163.001690859
-1647149.412603702
-1079922.751618882
-1301240.719548248
-2239280.351915478
-1332543.644021039
64133.10829781464
740533.5427550145
578594.4430228578
-357488.4787816764
-113640.336008912
1364844.205046254
2123209.224785774
2033731.828829787
1147139.497125739
)

Reconstructing field T

Exporting solution in the time domain (25, 26]


SIMPLE: convergence criteria
    field T	 tolerance 1e-12

Ready for new computation

Field size = 10.
Sampling ONLY the last timestep



Sampling done 

Tcomp = 
869.5061843587132 876.7773505080633 897.0786845034468  930.264390816547 976.1315096621554 927.3516768177742 934.8106258772996 955.1986983873101 988.3570279343859 1034.086300376087 1005.207984925101 1012.822353663186 1033.243046087754 1066.307355600496 1111.828591754542
TmeasShort = 
  869.50934450008 877.1420497989051 897.4748704862952 930.5120489684431 976.2398475323046 926.8410814364556 934.4737867348206 954.8066074221288 987.8437859044357 1033.571584468733 1005.442810398175 1013.075515696643 1033.408336383983 1066.445514866248 1112.173313430427
J = 0.6526445981543236

Time sample 27
debug: T0field.size() = 44
Reconstructing field T

Exporting solution in the time domain (26, 27]


SIMPLE: convergence criteria
    field T	 tolerance 1e-12

Ready for new computation
Previous step was reduced
Projection error Points = 1.307940840171218e-10
Using REDUCED T0

Solving REDUCED T0 problem
Setting endTime to offlineEndTime

SIMPLE: convergence criteria
    field T	 tolerance 1e-12

Ready for new computation
Ready for new offline computation
Time = 0.1

ExecutionTime = 86.36 s  ClockTime = 146 s

Time = 0.2

ExecutionTime = 86.36 s  ClockTime = 146 s

Time = 0.3

ExecutionTime = 86.36 s  ClockTime = 146 s

Time = 0.4

ExecutionTime = 86.36 s  ClockTime = 146 s

Time = 0.5

ExecutionTime = 86.37 s  ClockTime = 146 s

Time = 0.6

ExecutionTime = 86.37 s  ClockTime = 146 s

Time = 0.7

ExecutionTime = 86.37 s  ClockTime = 146 s

Time = 0.8

ExecutionTime = 86.37 s  ClockTime = 146 s

Time = 0.9

ExecutionTime = 86.37 s  ClockTime = 146 s

Time = 1

ExecutionTime = 86.37 s  ClockTime = 146 s


Field size = 10.
Sampling ONLY the last timestep



Sampling done 

SolveT0 ENDED

T0 computed
Time difference = 17303[microseconds]
Weights = 

15
(
-2639748.284564716
-1325954.363220213
-756720.3231984093
-1037728.587965108
-2091244.686079602
-1274515.229517518
163138.5084076478
826861.8751010331
593677.2677400341
-464319.4080362656
-288687.1910170022
1211846.450071568
1942059.132220896
1771833.950958055
761205.7378740587
)

Reconstructing field T

Exporting solution in the time domain (26, 27]


SIMPLE: convergence criteria
    field T	 tolerance 1e-12

Ready for new computation

Field size = 10.
Sampling ONLY the last timestep



Sampling done 

Tcomp = 
870.6822732779315 878.1253988420201 898.6799270780392 932.1475803689223 978.2502359686414 928.8025758461364 936.5077222998264 957.1828332047119 990.6115215025492 1036.520776856488 1006.714744938503 1014.640243409731 1035.362536357856 1068.659564560158 1114.276084273883
TmeasShort = 
870.6756923767855 878.6164383820542 899.2156242733215 932.4774924567366  978.388305218061 928.1232990964298 936.0640451012546 956.6632309924441 989.9250991760121 1035.835911937756  1007.03375707791 1014.974503082834 1035.573688974055 1068.835557157581 1114.746369919212
J = 0.87102436762935

Time sample 28
debug: T0field.size() = 44
Reconstructing field T

Exporting solution in the time domain (27, 28]


SIMPLE: convergence criteria
    field T	 tolerance 1e-12

Ready for new computation
Previous step was reduced
Projection error Points = 2.65230989686848e-11
Using REDUCED T0

Solving REDUCED T0 problem
Setting endTime to offlineEndTime

SIMPLE: convergence criteria
    field T	 tolerance 1e-12

Ready for new computation
Ready for new offline computation
Time = 0.1

ExecutionTime = 87.45999999999999 s  ClockTime = 148 s

Time = 0.2

ExecutionTime = 87.45999999999999 s  ClockTime = 148 s

Time = 0.3

ExecutionTime = 87.47 s  ClockTime = 148 s

Time = 0.4

ExecutionTime = 87.47 s  ClockTime = 148 s

Time = 0.5

ExecutionTime = 87.47 s  ClockTime = 148 s

Time = 0.6

ExecutionTime = 87.47 s  ClockTime = 148 s

Time = 0.7

ExecutionTime = 87.47 s  ClockTime = 148 s

Time = 0.8

ExecutionTime = 87.47 s  ClockTime = 148 s

Time = 0.9

ExecutionTime = 87.47 s  ClockTime = 148 s

Time = 1

ExecutionTime = 87.47 s  ClockTime = 148 s


Field size = 10.
Sampling ONLY the last timestep



Sampling done 

SolveT0 ENDED

T0 computed
Time difference = 16627[microseconds]
Weights = 

15
(
-1792987.547262227
-1227428.532439505
-962634.0782597052
-1040794.363580474
-1429420.719118104
-730664.7318014664
-74679.21800856528
263106.6787082421
228243.8866959728
-152889.3334941012
175791.3151003733
895977.1208091371
1294013.36047503
1307567.126634838
954417.70681228
)

Reconstructing field T

Exporting solution in the time domain (27, 28]


SIMPLE: convergence criteria
    field T	 tolerance 1e-12

Ready for new computation

Field size = 10.
Sampling ONLY the last timestep



Sampling done 

Tcomp = 
868.7842907953808 876.1320457211624 896.6299529362947 930.0453784028456 976.0412645518891 926.7737872928849 934.4436110662016 955.0888293568277 988.4547761275556 1034.210801950995 1004.290953054388 1012.237638966439   1032.9438493615 1066.147428141767 1111.539720137586
TmeasShort = 
868.7542684267369 876.6996262455046 897.2533096034067 930.4195609064541 976.1846424388132 926.0059993788235 933.9513571971625  954.505040554991 987.6712918581845 1033.436373390949   1004.6651690679 1012.610526886335 1033.164210244193 1066.330461547347 1112.095543080002
J = 0.9910200957697134

Time sample 29
debug: T0field.size() = 44
Reconstructing field T

Exporting solution in the time domain (28, 29]


SIMPLE: convergence criteria
    field T	 tolerance 1e-12

Ready for new computation
Previous step was reduced
Projection error Points = 2.524677010877109e-11
Using REDUCED T0

Solving REDUCED T0 problem
Setting endTime to offlineEndTime

SIMPLE: convergence criteria
    field T	 tolerance 1e-12

Ready for new computation
Ready for new offline computation
Time = 0.1

ExecutionTime = 88.56 s  ClockTime = 150 s

Time = 0.2

ExecutionTime = 88.56 s  ClockTime = 150 s

Time = 0.3

ExecutionTime = 88.56 s  ClockTime = 150 s

Time = 0.4

ExecutionTime = 88.56 s  ClockTime = 150 s

Time = 0.5

ExecutionTime = 88.56999999999999 s  ClockTime = 150 s

Time = 0.6

ExecutionTime = 88.56999999999999 s  ClockTime = 150 s

Time = 0.7

ExecutionTime = 88.56999999999999 s  ClockTime = 150 s

Time = 0.8

ExecutionTime = 88.56999999999999 s  ClockTime = 150 s

Time = 0.9

ExecutionTime = 88.56999999999999 s  ClockTime = 150 s

Time = 1

ExecutionTime = 88.56999999999999 s  ClockTime = 150 s


Field size = 10.
Sampling ONLY the last timestep



Sampling done 

SolveT0 ENDED

T0 computed
Time difference = 16094[microseconds]
Weights = 

15
(
-711284.2707819071
-1403549.728180443
-1628576.977211242
-1319630.867897978
-522864.2283041485
80310.35242846987
-558662.2562700445
-729871.9693254789
-372863.9178744813
457274.6621062449
1101943.61061963
548968.1742006522
444104.2131249813
836109.1392188949
1665380.485914861
)

Reconstructing field T

Exporting solution in the time domain (28, 29]


SIMPLE: convergence criteria
    field T	 tolerance 1e-12

Ready for new computation

Field size = 10.
Sampling ONLY the last timestep



Sampling done 

Tcomp = 
864.3798040636509 871.3902750835448 891.5272864200174 924.5571336942014 970.1256163742876 921.8595844176273 929.2122265949157 949.5046542865693 982.4800133820886 1027.791093390525 998.6636548741201 1006.317207597096 1026.677874085782 1059.480270712505 1104.400675885807
TmeasShort = 
864.3216535770885 871.9500287640548 892.1471032277695 924.9171193739634 970.2463394846989 921.1246870463724 928.7530622329248 948.9501366965699 981.7201528429036  1027.04937295403 999.0395060887901 1006.667881275434 1026.864955739109 1059.634971885404 1104.964191996425
J = 0.9580832329904668

Time sample 30
debug: T0field.size() = 44
Reconstructing field T

Exporting solution in the time domain (29, 30]


SIMPLE: convergence criteria
    field T	 tolerance 1e-12

Ready for new computation
Previous step was reduced
Projection error Points = 2.22024895413939e-10
Using REDUCED T0

Solving REDUCED T0 problem
Setting endTime to offlineEndTime

SIMPLE: convergence criteria
    field T	 tolerance 1e-12

Ready for new computation
Ready for new offline computation
Time = 0.1

ExecutionTime = 89.72 s  ClockTime = 152 s

Time = 0.2

ExecutionTime = 89.72 s  ClockTime = 152 s

Time = 0.3

ExecutionTime = 89.72 s  ClockTime = 152 s

Time = 0.4

ExecutionTime = 89.72 s  ClockTime = 152 s

Time = 0.5

ExecutionTime = 89.72 s  ClockTime = 152 s

Time = 0.6

ExecutionTime = 89.72 s  ClockTime = 152 s

Time = 0.7

ExecutionTime = 89.72 s  ClockTime = 152 s

Time = 0.8

ExecutionTime = 89.72 s  ClockTime = 152 s

Time = 0.9

ExecutionTime = 89.73 s  ClockTime = 152 s

Time = 1

ExecutionTime = 89.73 s  ClockTime = 152 s


Field size = 10.
Sampling ONLY the last timestep



Sampling done 

SolveT0 ENDED

T0 computed
Time difference = 16330[microseconds]
Weights = 

15
(
95533.95798975432
-1799761.153163616
-2478586.490841911
-1768564.227666276
207208.0814467912
787095.8378255508
-1077714.509070153
-1709753.867772315
-938864.3469155492
1098867.201306566
2084565.863640739
339648.4123681972
-209162.7785817038
591237.5321264761
2602996.165625895
)

Reconstructing field T

Exporting solution in the time domain (29, 30]


SIMPLE: convergence criteria
    field T	 tolerance 1e-12

Ready for new computation

Field size = 10.
Sampling ONLY the last timestep



Sampling done 

Tcomp = 
859.2970600504177 865.8763001744584 885.5033321425997 917.9771400793313 962.9765596875277 916.1001035286109 922.9924204017993 942.7605974235514  975.182666930424 1019.944073666152 992.1734398238115 999.3471477384077 1019.180921215387 1051.444487771933 1095.844832124157
TmeasShort = 
859.2184846422001 866.3464817187132 886.0289671713489 918.2701834053506 963.0563927000383 915.5062399865077 922.6342370626212 942.3167225151908 974.5579387493267 1019.344148044392 992.4960231323757 999.6240202085783 1019.306505661177 1051.547721895275 1096.333931190238
J = 0.7858657408014075

Time sample 31
debug: T0field.size() = 44
Reconstructing field T

Exporting solution in the time domain (30, 31]


SIMPLE: convergence criteria
    field T	 tolerance 1e-12

Ready for new computation
Previous step was reduced
Projection error Points = 3.928735164955738e-10
Using REDUCED T0

Solving REDUCED T0 problem
Setting endTime to offlineEndTime

SIMPLE: convergence criteria
    field T	 tolerance 1e-12

Ready for new computation
Ready for new offline computation
Time = 0.1

ExecutionTime = 90.79000000000001 s  ClockTime = 154 s

Time = 0.2

ExecutionTime = 90.8 s  ClockTime = 154 s

Time = 0.3

ExecutionTime = 90.8 s  ClockTime = 154 s

Time = 0.4

ExecutionTime = 90.8 s  ClockTime = 154 s

Time = 0.5

ExecutionTime = 90.8 s  ClockTime = 154 s

Time = 0.6

ExecutionTime = 90.8 s  ClockTime = 154 s

Time = 0.7

ExecutionTime = 90.8 s  ClockTime = 154 s

Time = 0.8

ExecutionTime = 90.8 s  ClockTime = 154 s

Time = 0.9

ExecutionTime = 90.8 s  ClockTime = 154 s

Time = 1

ExecutionTime = 90.81 s  ClockTime = 154 s


Field size = 10.
Sampling ONLY the last timestep



Sampling done 

SolveT0 ENDED

T0 computed
Time difference = 18148[microseconds]
Weights = 

15
(
192500.4966303125
-2252304.468582531
-3120951.098243624
-2191065.250449171
377056.360718079
1027867.297355383
-1381718.390601286
-2193310.169405255
-1186875.854226027
1460832.617990925
2648881.017669357
390227.3200969485
-317247.5713070006
724953.9439583322
3338189.680869238
)

Reconstructing field T

Exporting solution in the time domain (30, 31]


SIMPLE: convergence criteria
    field T	 tolerance 1e-12

Ready for new computation

Field size = 10.
Sampling ONLY the last timestep



Sampling done 

Tcomp = 
855.9561542966267  862.223379905358 881.4395953681178 913.4546158939075 958.0159286611994 912.2380729988025 918.7531559232638 938.0803301427889 970.0529648215784 1014.423989456764 987.9151817457699 994.6568506593421 1014.038057518404 1045.885299709948 1089.968499673477
TmeasShort = 
855.8752426117464 862.5644155378887 881.8245067976238 913.6597587954234 958.0564338070703 911.8264659488646 918.5156388746208 937.7757301342931 969.6109821322218 1014.007657144233 988.1544079188974 994.8435808447393 1014.103672104439 1045.938924102331 1090.335599114244
J = 0.555893521942708

Time sample 32
debug: T0field.size() = 44
Reconstructing field T

Exporting solution in the time domain (31, 32]


SIMPLE: convergence criteria
    field T	 tolerance 1e-12

Ready for new computation
