/*---------------------------------------------------------------------------*\
| =========                 |                                                 |
| \\      /  F ield         | OpenFOAM: The Open Source CFD Toolbox           |
|  \\    /   O peration     | Version:  v1812                                 |
|   \\  /    A nd           | Web:      www.OpenFOAM.com                      |
|    \\/     M anipulation  |                                                 |
\*---------------------------------------------------------------------------*/
Build  : v1812 OPENFOAM=1812
Arch   : "LSB;label=32;scalar=64"
Exec   : numericalBenchmark
Date   : Jun 29 2020
Time   : 19:04:20
Host   : umberto-Inspiron-7370
PID    : 21925
I/O    : uncollated
Case   : /home/umberto/PhD/ITHACA-FV/tutorials/numericalBenchmark/coarseMesh
nProcs : 1
trapFpe: Floating point exception trapping enabled (FOAM_SIGFPE).
fileModificationChecking : Monitoring run-time modified files using timeStampMaster (fileModificationSkew 10)
allowSystemOperations : Allowing user-supplied system call operations

// * * * * * * * * * * * * * * * * * * * * * * * * * * * * * * * * * * * * * //
Create time

Create mesh for time = 0


SIMPLE: convergence criteria
    field T	 tolerance 1e-12
    field lambda	 tolerance 1e-12
    field deltaT	 tolerance 1e-12

Create field T
Create field lambda
Create field deltaT
Offline data already exist, reading existing data
POD data already exist, reading existing modes

SIMPLE: convergence criteria
    field T	 tolerance 1e-12
    field lambda	 tolerance 1e-12
    field deltaT	 tolerance 1e-12

DT = DT [1 1 -3 -1 0 0 0] 1
DICPCG:  Solving for T, Initial residual = 1, Final residual = 6.65509e-13, No Iterations 132
Exporting
Reading thermocouples cells from file
debug: Tmeas = 2.42994
2.52347
2.64551
2.77593
2.89864
3.00281
3.08458
 3.1456
3.18891
3.21514
2.55209
2.67332
2.82777
2.98583
3.12319
3.22414
3.28594
3.31659
3.32805
3.33054
 2.6836
2.83642
3.02771
 3.2172
 3.3712
3.46849
3.50759
3.50374
3.47896
 3.4543
  2.739
2.90618
3.11418
3.31791
3.47946
3.57508
 3.6039
3.58441
3.54319
3.50618
2.67424
 2.8269
3.01799
 3.2073
3.36121
3.45852
3.49775
3.49409
 3.4695
3.44498
2.52773
2.64834
2.80201
 2.9594
 3.0964
3.19743
3.25971
3.29111
3.30331
3.30632
2.37635
 2.4676
2.58684
2.71482
2.83623
2.94069
3.02423
3.08791
3.13394
3.16206
2.26849
2.34256
2.44148
2.55208
2.66428
2.77077
2.86687
2.94964
3.01558
3.05831
2.21078
2.27768
2.36803
2.47128
2.57959
2.68694
2.78835
2.87919
 2.9535
3.00229
NOT interpolating thermocouples measurements

*********************************************************
Performing test for the parameterized BC inverse solver

Radial Basis Functions are used.
gWeights = 90{0}

Computing offline

Resetting time, mesh and fields: all


SIMPLE: convergence criteria
    field T	 tolerance 1e-12
    field lambda	 tolerance 1e-12
    field deltaT	 tolerance 1e-12

Ready for new computation
DICPCG:  Solving for T, Initial residual = 1, Final residual = 9.93217e-13, No Iterations 131
Solving for j = 0

Resetting time, mesh and fields: all


SIMPLE: convergence criteria
    field T	 tolerance 1e-12
    field lambda	 tolerance 1e-12
    field deltaT	 tolerance 1e-12

Ready for new computation
DICPCG:  Solving for T, Initial residual = 1, Final residual = 8.32538e-13, No Iterations 132
Solving for j = 1

Resetting time, mesh and fields: all


SIMPLE: convergence criteria
    field T	 tolerance 1e-12
    field lambda	 tolerance 1e-12
    field deltaT	 tolerance 1e-12

Ready for new computation
DICPCG:  Solving for T, Initial residual = 1, Final residual = 7.42275e-13, No Iterations 132
Solving for j = 2

Resetting time, mesh and fields: all


SIMPLE: convergence criteria
    field T	 tolerance 1e-12
    field lambda	 tolerance 1e-12
    field deltaT	 tolerance 1e-12

Ready for new computation
DICPCG:  Solving for T, Initial residual = 1, Final residual = 6.75916e-13, No Iterations 132
Solving for j = 3

Resetting time, mesh and fields: all


SIMPLE: convergence criteria
    field T	 tolerance 1e-12
    field lambda	 tolerance 1e-12
    field deltaT	 tolerance 1e-12

Ready for new computation
DICPCG:  Solving for T, Initial residual = 1, Final residual = 6.33192e-13, No Iterations 132
Solving for j = 4

Resetting time, mesh and fields: all


SIMPLE: convergence criteria
    field T	 tolerance 1e-12
    field lambda	 tolerance 1e-12
    field deltaT	 tolerance 1e-12

Ready for new computation
DICPCG:  Solving for T, Initial residual = 1, Final residual = 8.51823e-13, No Iterations 129
Solving for j = 5

Resetting time, mesh and fields: all


SIMPLE: convergence criteria
    field T	 tolerance 1e-12
    field lambda	 tolerance 1e-12
    field deltaT	 tolerance 1e-12

Ready for new computation
DICPCG:  Solving for T, Initial residual = 1, Final residual = 6.40392e-13, No Iterations 132
Solving for j = 6

Resetting time, mesh and fields: all


SIMPLE: convergence criteria
    field T	 tolerance 1e-12
    field lambda	 tolerance 1e-12
    field deltaT	 tolerance 1e-12

Ready for new computation
DICPCG:  Solving for T, Initial residual = 1, Final residual = 6.81474e-13, No Iterations 132
Solving for j = 7

Resetting time, mesh and fields: all


SIMPLE: convergence criteria
    field T	 tolerance 1e-12
    field lambda	 tolerance 1e-12
    field deltaT	 tolerance 1e-12

Ready for new computation
DICPCG:  Solving for T, Initial residual = 1, Final residual = 7.44177e-13, No Iterations 132
Solving for j = 8

Resetting time, mesh and fields: all


SIMPLE: convergence criteria
    field T	 tolerance 1e-12
    field lambda	 tolerance 1e-12
    field deltaT	 tolerance 1e-12

Ready for new computation
DICPCG:  Solving for T, Initial residual = 1, Final residual = 8.28273e-13, No Iterations 132
Solving for j = 9

Resetting time, mesh and fields: all


SIMPLE: convergence criteria
    field T	 tolerance 1e-12
    field lambda	 tolerance 1e-12
    field deltaT	 tolerance 1e-12

Ready for new computation
DICPCG:  Solving for T, Initial residual = 1, Final residual = 9.27142e-13, No Iterations 132
Solving for j = 10

Resetting time, mesh and fields: all


SIMPLE: convergence criteria
    field T	 tolerance 1e-12
    field lambda	 tolerance 1e-12
    field deltaT	 tolerance 1e-12

Ready for new computation
DICPCG:  Solving for T, Initial residual = 1, Final residual = 7.67018e-13, No Iterations 132
Solving for j = 11

Resetting time, mesh and fields: all


SIMPLE: convergence criteria
    field T	 tolerance 1e-12
    field lambda	 tolerance 1e-12
    field deltaT	 tolerance 1e-12

Ready for new computation
DICPCG:  Solving for T, Initial residual = 1, Final residual = 6.97122e-13, No Iterations 132
Solving for j = 12

Resetting time, mesh and fields: all


SIMPLE: convergence criteria
    field T	 tolerance 1e-12
    field lambda	 tolerance 1e-12
    field deltaT	 tolerance 1e-12

Ready for new computation
DICPCG:  Solving for T, Initial residual = 1, Final residual = 6.47062e-13, No Iterations 132
Solving for j = 13

Resetting time, mesh and fields: all


SIMPLE: convergence criteria
    field T	 tolerance 1e-12
    field lambda	 tolerance 1e-12
    field deltaT	 tolerance 1e-12

Ready for new computation
DICPCG:  Solving for T, Initial residual = 1, Final residual = 6.1103e-13, No Iterations 132
Solving for j = 14

Resetting time, mesh and fields: all


SIMPLE: convergence criteria
    field T	 tolerance 1e-12
    field lambda	 tolerance 1e-12
    field deltaT	 tolerance 1e-12

Ready for new computation
DICPCG:  Solving for T, Initial residual = 1, Final residual = 8.79567e-13, No Iterations 130
Solving for j = 15

Resetting time, mesh and fields: all


SIMPLE: convergence criteria
    field T	 tolerance 1e-12
    field lambda	 tolerance 1e-12
    field deltaT	 tolerance 1e-12

Ready for new computation
DICPCG:  Solving for T, Initial residual = 1, Final residual = 6.20222e-13, No Iterations 132
Solving for j = 16

Resetting time, mesh and fields: all


SIMPLE: convergence criteria
    field T	 tolerance 1e-12
    field lambda	 tolerance 1e-12
    field deltaT	 tolerance 1e-12

Ready for new computation
DICPCG:  Solving for T, Initial residual = 1, Final residual = 6.50779e-13, No Iterations 132
Solving for j = 17

Resetting time, mesh and fields: all


SIMPLE: convergence criteria
    field T	 tolerance 1e-12
    field lambda	 tolerance 1e-12
    field deltaT	 tolerance 1e-12

Ready for new computation
DICPCG:  Solving for T, Initial residual = 1, Final residual = 6.97427e-13, No Iterations 132
Solving for j = 18

Resetting time, mesh and fields: all


SIMPLE: convergence criteria
    field T	 tolerance 1e-12
    field lambda	 tolerance 1e-12
    field deltaT	 tolerance 1e-12

Ready for new computation
DICPCG:  Solving for T, Initial residual = 1, Final residual = 7.62233e-13, No Iterations 132
Solving for j = 19

Resetting time, mesh and fields: all


SIMPLE: convergence criteria
    field T	 tolerance 1e-12
    field lambda	 tolerance 1e-12
    field deltaT	 tolerance 1e-12

Ready for new computation
DICPCG:  Solving for T, Initial residual = 1, Final residual = 8.42095e-13, No Iterations 132
Solving for j = 20

Resetting time, mesh and fields: all


SIMPLE: convergence criteria
    field T	 tolerance 1e-12
    field lambda	 tolerance 1e-12
    field deltaT	 tolerance 1e-12

Ready for new computation
DICPCG:  Solving for T, Initial residual = 1, Final residual = 6.90642e-13, No Iterations 132
Solving for j = 21

Resetting time, mesh and fields: all


SIMPLE: convergence criteria
    field T	 tolerance 1e-12
    field lambda	 tolerance 1e-12
    field deltaT	 tolerance 1e-12

Ready for new computation
DICPCG:  Solving for T, Initial residual = 1, Final residual = 6.46123e-13, No Iterations 132
Solving for j = 22

Resetting time, mesh and fields: all


SIMPLE: convergence criteria
    field T	 tolerance 1e-12
    field lambda	 tolerance 1e-12
    field deltaT	 tolerance 1e-12

Ready for new computation
DICPCG:  Solving for T, Initial residual = 1, Final residual = 6.13215e-13, No Iterations 132
Solving for j = 23

Resetting time, mesh and fields: all


SIMPLE: convergence criteria
    field T	 tolerance 1e-12
    field lambda	 tolerance 1e-12
    field deltaT	 tolerance 1e-12

Ready for new computation
DICPCG:  Solving for T, Initial residual = 1, Final residual = 9.63895e-13, No Iterations 131
Solving for j = 24

Resetting time, mesh and fields: all


SIMPLE: convergence criteria
    field T	 tolerance 1e-12
    field lambda	 tolerance 1e-12
    field deltaT	 tolerance 1e-12

Ready for new computation
DICPCG:  Solving for T, Initial residual = 1, Final residual = 8.82287e-13, No Iterations 131
Solving for j = 25

Resetting time, mesh and fields: all


SIMPLE: convergence criteria
    field T	 tolerance 1e-12
    field lambda	 tolerance 1e-12
    field deltaT	 tolerance 1e-12

Ready for new computation
DICPCG:  Solving for T, Initial residual = 1, Final residual = 5.97464e-13, No Iterations 132
Solving for j = 26

Resetting time, mesh and fields: all


SIMPLE: convergence criteria
    field T	 tolerance 1e-12
    field lambda	 tolerance 1e-12
    field deltaT	 tolerance 1e-12

Ready for new computation
DICPCG:  Solving for T, Initial residual = 1, Final residual = 6.1796e-13, No Iterations 132
Solving for j = 27

Resetting time, mesh and fields: all


SIMPLE: convergence criteria
    field T	 tolerance 1e-12
    field lambda	 tolerance 1e-12
    field deltaT	 tolerance 1e-12

Ready for new computation
DICPCG:  Solving for T, Initial residual = 1, Final residual = 6.47384e-13, No Iterations 132
Solving for j = 28

Resetting time, mesh and fields: all


SIMPLE: convergence criteria
    field T	 tolerance 1e-12
    field lambda	 tolerance 1e-12
    field deltaT	 tolerance 1e-12

Ready for new computation
DICPCG:  Solving for T, Initial residual = 1, Final residual = 6.8868e-13, No Iterations 132
Solving for j = 29

Resetting time, mesh and fields: all


SIMPLE: convergence criteria
    field T	 tolerance 1e-12
    field lambda	 tolerance 1e-12
    field deltaT	 tolerance 1e-12

Ready for new computation
DICPCG:  Solving for T, Initial residual = 1, Final residual = 7.41161e-13, No Iterations 132
Solving for j = 30

Resetting time, mesh and fields: all


SIMPLE: convergence criteria
    field T	 tolerance 1e-12
    field lambda	 tolerance 1e-12
    field deltaT	 tolerance 1e-12

Ready for new computation
DICPCG:  Solving for T, Initial residual = 1, Final residual = 6.11631e-13, No Iterations 132
Solving for j = 31

Resetting time, mesh and fields: all


SIMPLE: convergence criteria
    field T	 tolerance 1e-12
    field lambda	 tolerance 1e-12
    field deltaT	 tolerance 1e-12

Ready for new computation
DICPCG:  Solving for T, Initial residual = 1, Final residual = 5.88157e-13, No Iterations 132
Solving for j = 32

Resetting time, mesh and fields: all


SIMPLE: convergence criteria
    field T	 tolerance 1e-12
    field lambda	 tolerance 1e-12
    field deltaT	 tolerance 1e-12

Ready for new computation
DICPCG:  Solving for T, Initial residual = 1, Final residual = 9.22239e-13, No Iterations 131
Solving for j = 33

Resetting time, mesh and fields: all


SIMPLE: convergence criteria
    field T	 tolerance 1e-12
    field lambda	 tolerance 1e-12
    field deltaT	 tolerance 1e-12

Ready for new computation
DICPCG:  Solving for T, Initial residual = 1, Final residual = 7.26935e-13, No Iterations 125
Solving for j = 34

Resetting time, mesh and fields: all


SIMPLE: convergence criteria
    field T	 tolerance 1e-12
    field lambda	 tolerance 1e-12
    field deltaT	 tolerance 1e-12

Ready for new computation
DICPCG:  Solving for T, Initial residual = 1, Final residual = 9.22893e-13, No Iterations 131
Solving for j = 35

Resetting time, mesh and fields: all


SIMPLE: convergence criteria
    field T	 tolerance 1e-12
    field lambda	 tolerance 1e-12
    field deltaT	 tolerance 1e-12

Ready for new computation
DICPCG:  Solving for T, Initial residual = 1, Final residual = 9.89222e-13, No Iterations 131
Solving for j = 36

Resetting time, mesh and fields: all


SIMPLE: convergence criteria
    field T	 tolerance 1e-12
    field lambda	 tolerance 1e-12
    field deltaT	 tolerance 1e-12

Ready for new computation
DICPCG:  Solving for T, Initial residual = 1, Final residual = 5.84964e-13, No Iterations 132
Solving for j = 37

Resetting time, mesh and fields: all


SIMPLE: convergence criteria
    field T	 tolerance 1e-12
    field lambda	 tolerance 1e-12
    field deltaT	 tolerance 1e-12

Ready for new computation
DICPCG:  Solving for T, Initial residual = 1, Final residual = 5.98778e-13, No Iterations 132
Solving for j = 38

Resetting time, mesh and fields: all


SIMPLE: convergence criteria
    field T	 tolerance 1e-12
    field lambda	 tolerance 1e-12
    field deltaT	 tolerance 1e-12

Ready for new computation
DICPCG:  Solving for T, Initial residual = 1, Final residual = 6.16808e-13, No Iterations 132
Solving for j = 39

Resetting time, mesh and fields: all


SIMPLE: convergence criteria
    field T	 tolerance 1e-12
    field lambda	 tolerance 1e-12
    field deltaT	 tolerance 1e-12

Ready for new computation
DICPCG:  Solving for T, Initial residual = 1, Final residual = 6.39355e-13, No Iterations 132
Solving for j = 40

Resetting time, mesh and fields: all


SIMPLE: convergence criteria
    field T	 tolerance 1e-12
    field lambda	 tolerance 1e-12
    field deltaT	 tolerance 1e-12

Ready for new computation
DICPCG:  Solving for T, Initial residual = 1, Final residual = 9.45381e-13, No Iterations 131
Solving for j = 41

Resetting time, mesh and fields: all


SIMPLE: convergence criteria
    field T	 tolerance 1e-12
    field lambda	 tolerance 1e-12
    field deltaT	 tolerance 1e-12

Ready for new computation
DICPCG:  Solving for T, Initial residual = 1, Final residual = 9.42013e-13, No Iterations 131
Solving for j = 42

Resetting time, mesh and fields: all


SIMPLE: convergence criteria
    field T	 tolerance 1e-12
    field lambda	 tolerance 1e-12
    field deltaT	 tolerance 1e-12

Ready for new computation
DICPCG:  Solving for T, Initial residual = 1, Final residual = 9.38955e-13, No Iterations 131
Solving for j = 43

Resetting time, mesh and fields: all


SIMPLE: convergence criteria
    field T	 tolerance 1e-12
    field lambda	 tolerance 1e-12
    field deltaT	 tolerance 1e-12

Ready for new computation
DICPCG:  Solving for T, Initial residual = 1, Final residual = 9.36277e-13, No Iterations 131
Solving for j = 44

Resetting time, mesh and fields: all


SIMPLE: convergence criteria
    field T	 tolerance 1e-12
    field lambda	 tolerance 1e-12
    field deltaT	 tolerance 1e-12

Ready for new computation
DICPCG:  Solving for T, Initial residual = 1, Final residual = 9.34044e-13, No Iterations 131
Solving for j = 45

Resetting time, mesh and fields: all


SIMPLE: convergence criteria
    field T	 tolerance 1e-12
    field lambda	 tolerance 1e-12
    field deltaT	 tolerance 1e-12

Ready for new computation
DICPCG:  Solving for T, Initial residual = 1, Final residual = 9.32317e-13, No Iterations 131
Solving for j = 46

Resetting time, mesh and fields: all


SIMPLE: convergence criteria
    field T	 tolerance 1e-12
    field lambda	 tolerance 1e-12
    field deltaT	 tolerance 1e-12

Ready for new computation
DICPCG:  Solving for T, Initial residual = 1, Final residual = 9.31143e-13, No Iterations 131
Solving for j = 47

Resetting time, mesh and fields: all


SIMPLE: convergence criteria
    field T	 tolerance 1e-12
    field lambda	 tolerance 1e-12
    field deltaT	 tolerance 1e-12

Ready for new computation
DICPCG:  Solving for T, Initial residual = 1, Final residual = 9.30558e-13, No Iterations 131
Solving for j = 48

Resetting time, mesh and fields: all


SIMPLE: convergence criteria
    field T	 tolerance 1e-12
    field lambda	 tolerance 1e-12
    field deltaT	 tolerance 1e-12

Ready for new computation
DICPCG:  Solving for T, Initial residual = 1, Final residual = 9.30595e-13, No Iterations 131
Solving for j = 49

Resetting time, mesh and fields: all


SIMPLE: convergence criteria
    field T	 tolerance 1e-12
    field lambda	 tolerance 1e-12
    field deltaT	 tolerance 1e-12

Ready for new computation
DICPCG:  Solving for T, Initial residual = 1, Final residual = 9.31267e-13, No Iterations 131
Solving for j = 50

Resetting time, mesh and fields: all


SIMPLE: convergence criteria
    field T	 tolerance 1e-12
    field lambda	 tolerance 1e-12
    field deltaT	 tolerance 1e-12

Ready for new computation
DICPCG:  Solving for T, Initial residual = 1, Final residual = 9.3922e-13, No Iterations 131
Solving for j = 51

Resetting time, mesh and fields: all


SIMPLE: convergence criteria
    field T	 tolerance 1e-12
    field lambda	 tolerance 1e-12
    field deltaT	 tolerance 1e-12

Ready for new computation
DICPCG:  Solving for T, Initial residual = 1, Final residual = 9.28997e-13, No Iterations 131
Solving for j = 52

Resetting time, mesh and fields: all


SIMPLE: convergence criteria
    field T	 tolerance 1e-12
    field lambda	 tolerance 1e-12
    field deltaT	 tolerance 1e-12

Ready for new computation
DICPCG:  Solving for T, Initial residual = 1, Final residual = 9.18464e-13, No Iterations 131
Solving for j = 53

Resetting time, mesh and fields: all


SIMPLE: convergence criteria
    field T	 tolerance 1e-12
    field lambda	 tolerance 1e-12
    field deltaT	 tolerance 1e-12

Ready for new computation
DICPCG:  Solving for T, Initial residual = 1, Final residual = 9.06714e-13, No Iterations 131
Solving for j = 54

Resetting time, mesh and fields: all


SIMPLE: convergence criteria
    field T	 tolerance 1e-12
    field lambda	 tolerance 1e-12
    field deltaT	 tolerance 1e-12

Ready for new computation
DICPCG:  Solving for T, Initial residual = 1, Final residual = 8.85631e-13, No Iterations 131
Solving for j = 55

Resetting time, mesh and fields: all


SIMPLE: convergence criteria
    field T	 tolerance 1e-12
    field lambda	 tolerance 1e-12
    field deltaT	 tolerance 1e-12

Ready for new computation
DICPCG:  Solving for T, Initial residual = 1, Final residual = 9.9604e-13, No Iterations 127
Solving for j = 56

Resetting time, mesh and fields: all


SIMPLE: convergence criteria
    field T	 tolerance 1e-12
    field lambda	 tolerance 1e-12
    field deltaT	 tolerance 1e-12

Ready for new computation
DICPCG:  Solving for T, Initial residual = 1, Final residual = 8.42272e-13, No Iterations 130
Solving for j = 57

Resetting time, mesh and fields: all


SIMPLE: convergence criteria
    field T	 tolerance 1e-12
    field lambda	 tolerance 1e-12
    field deltaT	 tolerance 1e-12

Ready for new computation
DICPCG:  Solving for T, Initial residual = 1, Final residual = 8.98074e-13, No Iterations 131
Solving for j = 58

Resetting time, mesh and fields: all


SIMPLE: convergence criteria
    field T	 tolerance 1e-12
    field lambda	 tolerance 1e-12
    field deltaT	 tolerance 1e-12

Ready for new computation
DICPCG:  Solving for T, Initial residual = 1, Final residual = 9.17611e-13, No Iterations 131
Solving for j = 59

Resetting time, mesh and fields: all


SIMPLE: convergence criteria
    field T	 tolerance 1e-12
    field lambda	 tolerance 1e-12
    field deltaT	 tolerance 1e-12

Ready for new computation
DICPCG:  Solving for T, Initial residual = 1, Final residual = 9.27079e-13, No Iterations 131
Solving for j = 60

Resetting time, mesh and fields: all


SIMPLE: convergence criteria
    field T	 tolerance 1e-12
    field lambda	 tolerance 1e-12
    field deltaT	 tolerance 1e-12

Ready for new computation
DICPCG:  Solving for T, Initial residual = 1, Final residual = 9.73577e-13, No Iterations 131
Solving for j = 61

Resetting time, mesh and fields: all


SIMPLE: convergence criteria
    field T	 tolerance 1e-12
    field lambda	 tolerance 1e-12
    field deltaT	 tolerance 1e-12

Ready for new computation
DICPCG:  Solving for T, Initial residual = 1, Final residual = 9.62307e-13, No Iterations 131
Solving for j = 62

Resetting time, mesh and fields: all


SIMPLE: convergence criteria
    field T	 tolerance 1e-12
    field lambda	 tolerance 1e-12
    field deltaT	 tolerance 1e-12

Ready for new computation
DICPCG:  Solving for T, Initial residual = 1, Final residual = 9.55531e-13, No Iterations 131
Solving for j = 63

Resetting time, mesh and fields: all


SIMPLE: convergence criteria
    field T	 tolerance 1e-12
    field lambda	 tolerance 1e-12
    field deltaT	 tolerance 1e-12

Ready for new computation
DICPCG:  Solving for T, Initial residual = 1, Final residual = 9.49909e-13, No Iterations 131
Solving for j = 64

Resetting time, mesh and fields: all


SIMPLE: convergence criteria
    field T	 tolerance 1e-12
    field lambda	 tolerance 1e-12
    field deltaT	 tolerance 1e-12

Ready for new computation
DICPCG:  Solving for T, Initial residual = 1, Final residual = 9.29404e-13, No Iterations 131
Solving for j = 65

Resetting time, mesh and fields: all


SIMPLE: convergence criteria
    field T	 tolerance 1e-12
    field lambda	 tolerance 1e-12
    field deltaT	 tolerance 1e-12

Ready for new computation
DICPCG:  Solving for T, Initial residual = 1, Final residual = 7.84413e-13, No Iterations 125
Solving for j = 66

Resetting time, mesh and fields: all


SIMPLE: convergence criteria
    field T	 tolerance 1e-12
    field lambda	 tolerance 1e-12
    field deltaT	 tolerance 1e-12

Ready for new computation
DICPCG:  Solving for T, Initial residual = 1, Final residual = 9.29595e-13, No Iterations 131
Solving for j = 67

Resetting time, mesh and fields: all


SIMPLE: convergence criteria
    field T	 tolerance 1e-12
    field lambda	 tolerance 1e-12
    field deltaT	 tolerance 1e-12

Ready for new computation
DICPCG:  Solving for T, Initial residual = 1, Final residual = 9.34046e-13, No Iterations 131
Solving for j = 68

Resetting time, mesh and fields: all


SIMPLE: convergence criteria
    field T	 tolerance 1e-12
    field lambda	 tolerance 1e-12
    field deltaT	 tolerance 1e-12

Ready for new computation
DICPCG:  Solving for T, Initial residual = 1, Final residual = 9.38689e-13, No Iterations 131
Solving for j = 69

Resetting time, mesh and fields: all


SIMPLE: convergence criteria
    field T	 tolerance 1e-12
    field lambda	 tolerance 1e-12
    field deltaT	 tolerance 1e-12

Ready for new computation
DICPCG:  Solving for T, Initial residual = 1, Final residual = 9.51039e-13, No Iterations 131
Solving for j = 70

Resetting time, mesh and fields: all


SIMPLE: convergence criteria
    field T	 tolerance 1e-12
    field lambda	 tolerance 1e-12
    field deltaT	 tolerance 1e-12

Ready for new computation
DICPCG:  Solving for T, Initial residual = 1, Final residual = 6.14647e-13, No Iterations 132
Solving for j = 71

Resetting time, mesh and fields: all


SIMPLE: convergence criteria
    field T	 tolerance 1e-12
    field lambda	 tolerance 1e-12
    field deltaT	 tolerance 1e-12

Ready for new computation
DICPCG:  Solving for T, Initial residual = 1, Final residual = 5.76446e-13, No Iterations 132
Solving for j = 72

Resetting time, mesh and fields: all


SIMPLE: convergence criteria
    field T	 tolerance 1e-12
    field lambda	 tolerance 1e-12
    field deltaT	 tolerance 1e-12

Ready for new computation
DICPCG:  Solving for T, Initial residual = 1, Final residual = 9.80309e-13, No Iterations 131
Solving for j = 73

Resetting time, mesh and fields: all


SIMPLE: convergence criteria
    field T	 tolerance 1e-12
    field lambda	 tolerance 1e-12
    field deltaT	 tolerance 1e-12

Ready for new computation
DICPCG:  Solving for T, Initial residual = 1, Final residual = 9.63692e-13, No Iterations 131
Solving for j = 74

Resetting time, mesh and fields: all


SIMPLE: convergence criteria
    field T	 tolerance 1e-12
    field lambda	 tolerance 1e-12
    field deltaT	 tolerance 1e-12

Ready for new computation
DICPCG:  Solving for T, Initial residual = 1, Final residual = 9.38348e-13, No Iterations 131
Solving for j = 75

Resetting time, mesh and fields: all


SIMPLE: convergence criteria
    field T	 tolerance 1e-12
    field lambda	 tolerance 1e-12
    field deltaT	 tolerance 1e-12

Ready for new computation
DICPCG:  Solving for T, Initial residual = 1, Final residual = 8.77341e-13, No Iterations 131
Solving for j = 76

Resetting time, mesh and fields: all


SIMPLE: convergence criteria
    field T	 tolerance 1e-12
    field lambda	 tolerance 1e-12
    field deltaT	 tolerance 1e-12

Ready for new computation
DICPCG:  Solving for T, Initial residual = 1, Final residual = 9.37126e-13, No Iterations 131
Solving for j = 77

Resetting time, mesh and fields: all


SIMPLE: convergence criteria
    field T	 tolerance 1e-12
    field lambda	 tolerance 1e-12
    field deltaT	 tolerance 1e-12

Ready for new computation
DICPCG:  Solving for T, Initial residual = 1, Final residual = 9.43657e-13, No Iterations 131
Solving for j = 78

Resetting time, mesh and fields: all


SIMPLE: convergence criteria
    field T	 tolerance 1e-12
    field lambda	 tolerance 1e-12
    field deltaT	 tolerance 1e-12

Ready for new computation
DICPCG:  Solving for T, Initial residual = 1, Final residual = 9.67947e-13, No Iterations 131
Solving for j = 79

Resetting time, mesh and fields: all


SIMPLE: convergence criteria
    field T	 tolerance 1e-12
    field lambda	 tolerance 1e-12
    field deltaT	 tolerance 1e-12

Ready for new computation
DICPCG:  Solving for T, Initial residual = 1, Final residual = 5.96521e-13, No Iterations 132
Solving for j = 80

Resetting time, mesh and fields: all


SIMPLE: convergence criteria
    field T	 tolerance 1e-12
    field lambda	 tolerance 1e-12
    field deltaT	 tolerance 1e-12

Ready for new computation
DICPCG:  Solving for T, Initial residual = 1, Final residual = 6.80789e-13, No Iterations 132
Solving for j = 81

Resetting time, mesh and fields: all


SIMPLE: convergence criteria
    field T	 tolerance 1e-12
    field lambda	 tolerance 1e-12
    field deltaT	 tolerance 1e-12

Ready for new computation
DICPCG:  Solving for T, Initial residual = 1, Final residual = 6.1777e-13, No Iterations 132
Solving for j = 82

Resetting time, mesh and fields: all


SIMPLE: convergence criteria
    field T	 tolerance 1e-12
    field lambda	 tolerance 1e-12
    field deltaT	 tolerance 1e-12

Ready for new computation
DICPCG:  Solving for T, Initial residual = 1, Final residual = 5.77778e-13, No Iterations 132
Solving for j = 83

Resetting time, mesh and fields: all


SIMPLE: convergence criteria
    field T	 tolerance 1e-12
    field lambda	 tolerance 1e-12
    field deltaT	 tolerance 1e-12

Ready for new computation
DICPCG:  Solving for T, Initial residual = 1, Final residual = 9.7968e-13, No Iterations 131
Solving for j = 84

Resetting time, mesh and fields: all


SIMPLE: convergence criteria
    field T	 tolerance 1e-12
    field lambda	 tolerance 1e-12
    field deltaT	 tolerance 1e-12

Ready for new computation
DICPCG:  Solving for T, Initial residual = 1, Final residual = 9.47212e-13, No Iterations 131
Solving for j = 85

Resetting time, mesh and fields: all


SIMPLE: convergence criteria
    field T	 tolerance 1e-12
    field lambda	 tolerance 1e-12
    field deltaT	 tolerance 1e-12

Ready for new computation
DICPCG:  Solving for T, Initial residual = 1, Final residual = 9.18418e-13, No Iterations 131
Solving for j = 86

Resetting time, mesh and fields: all


SIMPLE: convergence criteria
    field T	 tolerance 1e-12
    field lambda	 tolerance 1e-12
    field deltaT	 tolerance 1e-12

Ready for new computation
DICPCG:  Solving for T, Initial residual = 1, Final residual = 9.44114e-13, No Iterations 131
Solving for j = 87

Resetting time, mesh and fields: all


SIMPLE: convergence criteria
    field T	 tolerance 1e-12
    field lambda	 tolerance 1e-12
    field deltaT	 tolerance 1e-12

Ready for new computation
DICPCG:  Solving for T, Initial residual = 1, Final residual = 9.60909e-13, No Iterations 131
Solving for j = 88

Resetting time, mesh and fields: all


SIMPLE: convergence criteria
    field T	 tolerance 1e-12
    field lambda	 tolerance 1e-12
    field deltaT	 tolerance 1e-12

Ready for new computation
DICPCG:  Solving for T, Initial residual = 1, Final residual = 5.84104e-13, No Iterations 132
Solving for j = 89

Resetting time, mesh and fields: all


SIMPLE: convergence criteria
    field T	 tolerance 1e-12
    field lambda	 tolerance 1e-12
    field deltaT	 tolerance 1e-12

Ready for new computation
DICPCG:  Solving for T, Initial residual = 1, Final residual = 6.58775e-13, No Iterations 132

Offline part ENDED

debug: Tbasis[0].internalField()[100] = 1.9139
debug: Tbasis[1].internalField()[100] = 1.91285
debug: Tbasis[2].internalField()[100] = 1.91399
debug: Tbasis[3].internalField()[100] = 1.91728
debug: Tbasis[4].internalField()[100] = 1.92261
debug: Tbasis[5].internalField()[100] = 1.9298
debug: Tbasis[6].internalField()[100] = 1.9386
debug: Tbasis[7].internalField()[100] = 1.94874
debug: Tbasis[8].internalField()[100] = 1.9599
debug: Tbasis[9].internalField()[100] = 1.97178
debug: Tbasis[10].internalField()[100] = 1.89983
debug: Tbasis[11].internalField()[100] = 1.8987
debug: Tbasis[12].internalField()[100] = 1.89993
debug: Tbasis[13].internalField()[100] = 1.90348
debug: Tbasis[14].internalField()[100] = 1.90921
debug: Tbasis[15].internalField()[100] = 1.91693
debug: Tbasis[16].internalField()[100] = 1.92638
debug: Tbasis[17].internalField()[100] = 1.93728
debug: Tbasis[18].internalField()[100] = 1.94927
debug: Tbasis[19].internalField()[100] = 1.96203
debug: Tbasis[20].internalField()[100] = 1.89228
debug: Tbasis[21].internalField()[100] = 1.89111
debug: Tbasis[22].internalField()[100] = 1.89239
debug: Tbasis[23].internalField()[100] = 1.89606
debug: Tbasis[24].internalField()[100] = 1.90201
debug: Tbasis[25].internalField()[100] = 1.91001
debug: Tbasis[26].internalField()[100] = 1.91982
debug: Tbasis[27].internalField()[100] = 1.93111
debug: Tbasis[28].internalField()[100] = 1.94355
debug: Tbasis[29].internalField()[100] = 1.95678
debug: Tbasis[30].internalField()[100] = 1.89201
debug: Tbasis[31].internalField()[100] = 1.89084
debug: Tbasis[32].internalField()[100] = 1.89211
debug: Tbasis[33].internalField()[100] = 1.89579
debug: Tbasis[34].internalField()[100] = 1.90173
debug: Tbasis[35].internalField()[100] = 1.90974
debug: Tbasis[36].internalField()[100] = 1.91956
debug: Tbasis[37].internalField()[100] = 1.93086
debug: Tbasis[38].internalField()[100] = 1.94331
debug: Tbasis[39].internalField()[100] = 1.95656
debug: Tbasis[40].internalField()[100] = 1.89904
debug: Tbasis[41].internalField()[100] = 1.89789
debug: Tbasis[42].internalField()[100] = 1.89911
debug: Tbasis[43].internalField()[100] = 1.90265
debug: Tbasis[44].internalField()[100] = 1.90839
debug: Tbasis[45].internalField()[100] = 1.91613
debug: Tbasis[46].internalField()[100] = 1.92561
debug: Tbasis[47].internalField()[100] = 1.93653
debug: Tbasis[48].internalField()[100] = 1.94856
debug: Tbasis[49].internalField()[100] = 1.96136
debug: Tbasis[50].internalField()[100] = 1.91262
debug: Tbasis[51].internalField()[100] = 1.91154
debug: Tbasis[52].internalField()[100] = 1.91266
debug: Tbasis[53].internalField()[100] = 1.91595
debug: Tbasis[54].internalField()[100] = 1.92129
debug: Tbasis[55].internalField()[100] = 1.9285
debug: Tbasis[56].internalField()[100] = 1.93734
debug: Tbasis[57].internalField()[100] = 1.94753
debug: Tbasis[58].internalField()[100] = 1.95876
debug: Tbasis[59].internalField()[100] = 1.97071
debug: Tbasis[60].internalField()[100] = 1.93142
debug: Tbasis[61].internalField()[100] = 1.93042
debug: Tbasis[62].internalField()[100] = 1.93141
debug: Tbasis[63].internalField()[100] = 1.93436
debug: Tbasis[64].internalField()[100] = 1.93916
debug: Tbasis[65].internalField()[100] = 1.94564
debug: Tbasis[66].internalField()[100] = 1.9536
debug: Tbasis[67].internalField()[100] = 1.96278
debug: Tbasis[68].internalField()[100] = 1.97289
debug: Tbasis[69].internalField()[100] = 1.98366
debug: Tbasis[70].internalField()[100] = 1.95368
debug: Tbasis[71].internalField()[100] = 1.95278
debug: Tbasis[72].internalField()[100] = 1.95363
debug: Tbasis[73].internalField()[100] = 1.95617
debug: Tbasis[74].internalField()[100] = 1.96033
debug: Tbasis[75].internalField()[100] = 1.96596
debug: Tbasis[76].internalField()[100] = 1.97287
debug: Tbasis[77].internalField()[100] = 1.98085
debug: Tbasis[78].internalField()[100] = 1.98966
debug: Tbasis[79].internalField()[100] = 1.99903
debug: Tbasis[80].internalField()[100] = 1.97752
debug: Tbasis[81].internalField()[100] = 1.97674
debug: Tbasis[82].internalField()[100] = 1.97743
debug: Tbasis[83].internalField()[100] = 1.97954
debug: Tbasis[84].internalField()[100] = 1.98302
debug: Tbasis[85].internalField()[100] = 1.98774
debug: Tbasis[86].internalField()[100] = 1.99354
debug: Tbasis[87].internalField()[100] = 2.00024
debug: Tbasis[88].internalField()[100] = 2.00764
debug: Tbasis[89].internalField()[100] = 2.01552
Condition number = 1.56173e+18
Solver fullPivLU


Using quasilinearity of direct problem
Theta size = 90, 90
Reconstructing field T

Resetting time, mesh and fields: all


SIMPLE: convergence criteria
    field T	 tolerance 1e-12
    field lambda	 tolerance 1e-12
    field deltaT	 tolerance 1e-12

Ready for new computation
debug: Tad_base.size() = 1
debug: Tbasis.size() = 90
debug: gWeights = 

90
(
4392.36
0
-2641
0
0
-30663.2
0
19779.7
0
6217.95
-8323.03
0
35989
0
0
0
0
0
0
-26443
-22428.9
0
0
0
0
0
0
30123.3
0
0
0
0
0
0
0
0
0
0
0
11426.6
28183.8
0
0
0
-41344.2
0
0
-30889.2
0
0
0
0
0
0
0
0
0
0
0
0
0
0
0
0
0
0
70763.4
0
0
17252.6
-34311.7
0
16032.7
0
0
0
0
0
-72141.5
0
18662.1
0
0
0
0
-36752.7
0
38288.8
0
8819.48
)

J = 17038.5
End

Duration online part = 0.009616 seconds
Solver jacobiSvd


Using quasilinearity of direct problem
Theta size = 90, 90
Reconstructing field T

Resetting time, mesh and fields: all


SIMPLE: convergence criteria
    field T	 tolerance 1e-12
    field lambda	 tolerance 1e-12
    field deltaT	 tolerance 1e-12

Ready for new computation
debug: Tad_base.size() = 1
debug: Tbasis.size() = 90
debug: gWeights = 

90
(
-4292.07
-616.972
135.352
-610.541
-1390.96
-1321.09
-784.367
-117.251
-691.278
-3927.43
1995.75
4778.9
4292.3
2887.1
1687.17
1731.81
2745.3
4259.32
4599.9
2064.3
-633.632
1359.94
363.884
-1560.72
-3054.14
-3040.47
-1553.58
482.809
1346.06
-793.94
-2592.97
-461.555
-1315.67
-3406.21
-4867.84
-4744.75
-3205.91
-1210.38
-279.276
-2835.23
-1354.5
1656.28
1075.46
-440.539
-1593.57
-1520.54
-235.328
1464.2
1648.89
-1454.94
34.1676
3622.21
3859.44
2615.15
1806.26
1828.34
2792.59
3995.77
3774.22
-207.57
-1846.98
1996.41
2352.86
1339.62
476.702
444.949
1360.32
2336.33
1965.19
-1928.41
-4644.79
-1635.79
-1584.8
-2828.54
-3901.06
-4006.12
-2934.37
-1780.97
-1674.08
-4677.21
1106.13
3008.48
2284.2
578.913
-800.051
-819.148
340.254
2045.66
2998.05
1538.57
)

J = 3.10356e+06
End

Duration online part = 0.015554 seconds
Solver householderQr


Using quasilinearity of direct problem
Theta size = 90, 90
Reconstructing field T

Resetting time, mesh and fields: all


SIMPLE: convergence criteria
    field T	 tolerance 1e-12
    field lambda	 tolerance 1e-12
    field deltaT	 tolerance 1e-12

Ready for new computation
debug: Tad_base.size() = 1
debug: Tbasis.size() = 90
debug: gWeights = 

90
(
478679
-983037
4.16746e+06
-4.34969e+06
838058
-403144
3.47226e+06
-4.90905e+06
1.61197e+06
887428
-1.6336e+06
-2.71054e+06
2.37626e+06
-1.94571e+06
-885636
-101721
8.06145e+06
-6.36445e+06
1.78889e+06
-2.95927e+06
3.785e+06
-778801
2.86141e+06
180689
4.22688e+06
-3.74863e+06
-3.43892e+06
-798613
5.78498e+06
1.81006e+06
-2.06679e+06
1.80157e+06
-808321
-5.2125e+06
-4.31899e+06
2.9836e+06
-104864
3.47144e+06
-4.80737e+06
-2.16169e+06
-1.90593e+06
3.25821e+06
-4.50842e+06
-271171
8.73483e+06
1.73294e+06
-3.57738e+06
-1.92236e+06
2.2191e+06
1.07734e+06
-1.27685e+06
2.36725e+06
2.09216e+06
-485590
-2.06939e+06
3.20579e+06
-1.01163e+06
-400452
512208
220020
1.96828e+06
-709437
-1.22475e+06
-2.67296e+06
868573
-3.24385e+06
1.19713e+06
-1.29242e+06
-1.04643e+06
841481
-775072
719366
-1.28632e+06
1.01021e+06
998094
-50004.9
2.37505e+06
-266710
2.01438e+06
-1.9651e+06
231359
-908253
556355
1.51346e+06
-740283
-949254
-286517
-562089
94332.9
503804
)

J = 4.20938e+06
End

Duration online part = 0.009338 seconds
Solver ldlt


Using quasilinearity of direct problem
Theta size = 90, 90
Reconstructing field T

Resetting time, mesh and fields: all


SIMPLE: convergence criteria
    field T	 tolerance 1e-12
    field lambda	 tolerance 1e-12
    field deltaT	 tolerance 1e-12

Ready for new computation
debug: Tad_base.size() = 1
debug: Tbasis.size() = 90
debug: gWeights = 

90
(
299619
-413065
-300611
450413
162946
103357
-311626
-349302
323035
91876.1
-128247
302269
-257797
176745
-5830.72
-171100
71914.9
254576
-194349
-300098
-68794.3
-212278
257486
101370
-208418
-7672.37
-145576
502678
274068
-4902.82
79938.2
-215489
97563
-4417.99
-32257.7
471453
-718259
-404023
274265
-111296
252783
209716
310429
-106293
-668512
167749
-63034.8
338586
-24824.9
93192.7
-472419
-138679
-19644.1
-3998.93
367031
62929.2
-23182.2
-56021.9
-107213
-82888.8
173472
89475.3
-159570
-200157
156599
372927
42414.2
52937.9
-198981
61547.7
735.316
248945
82494.6
-421826
-34620.7
65181
-313450
37576.3
43145.5
89462.9
24755
-108769
-301784
478191
204934
-354175
61259.6
76577.8
20989.5
-55952.7
)

J = 1.18677e+07
End

Duration online part = 0.011701 seconds
Solver TSVD


Using quasilinearity of direct problem
Theta size = 90, 90
Using truncated SVD for regularization
Reconstructing field T

Resetting time, mesh and fields: all


SIMPLE: convergence criteria
    field T	 tolerance 1e-12
    field lambda	 tolerance 1e-12
    field deltaT	 tolerance 1e-12

Ready for new computation
debug: Tad_base.size() = 1
debug: Tbasis.size() = 90
debug: gWeights = 

90
(
-0.10992
-0.112311
-0.113461
-0.11333
-0.111926
-0.109296
-0.105529
-0.100748
-0.0951051
-0.0887728
-0.101921
-0.103707
-0.10431
-0.103712
-0.101931
-0.0990304
-0.0951063
-0.0902879
-0.0847283
-0.0785969
-0.087738
-0.0887049
-0.0886152
-0.0874699
-0.0853069
-0.0821997
-0.078253
-0.0735967
-0.0683788
-0.0627579
-0.0683933
-0.0683898
-0.0675105
-0.0657807
-0.0632571
-0.060025
-0.0561931
-0.051888
-0.0472468
-0.0424101
-0.0455963
-0.0445554
-0.042859
-0.0405578
-0.0377267
-0.0344608
-0.0308703
-0.0270738
-0.0231927
-0.0193438
-0.0214951
-0.0194469
-0.0169825
-0.0141763
-0.0111192
-0.0079135
-0.00466739
-0.00148867
0.00152103
0.00427167
0.00165504
0.00458539
0.00769649
0.0108936
0.0140735
0.0171302
0.0199604
0.0224698
0.0245778
0.0262223
0.0218366
0.0254465
0.0290258
0.0324647
0.0356528
0.0384839
0.0408623
0.0427084
0.0439627
0.0445891
0.0375567
0.0415944
0.0454296
0.0489446
0.0520266
0.0545732
0.0564984
0.0577372
0.0582493
0.0580216
)

J = 4305.61
End

Duration online part = 0.022724 seconds
Computing errors
 ######### Reading the Data for gParametrized #########
 28% [|||||||||||||||||                                           ] 42% [|||||||||||||||||||||||||                                   ] 57% [||||||||||||||||||||||||||||||||||                          ] 71% [||||||||||||||||||||||||||||||||||||||||||                  ] 85% [|||||||||||||||||||||||||||||||||||||||||||||||||||         ]100% [||||||||||||||||||||||||||||||||||||||||||||||||||||||||||||]
*********************************************************

