/*---------------------------------------------------------------------------*\
| =========                 |                                                 |
| \\      /  F ield         | OpenFOAM: The Open Source CFD Toolbox           |
|  \\    /   O peration     | Version:  v2012                                 |
|   \\  /    A nd           | Website:  www.openfoam.com                      |
|    \\/     M anipulation  |                                                 |
\*---------------------------------------------------------------------------*/
Build  : _7bdb509494-20201222 OPENFOAM=2012
Arch   : "LSB;label=32;scalar=64"
Exec   : sequentialAcquisitionTest
Date   : Mar 04 2021
Time   : 16:34:54
Host   : inspiron-UM
PID    : 24788
I/O    : uncollated
Case   : /media/Data/ITHACA-FV/tutorials/inverseHeatTransfer/sequentialAcquisitionTest/coarseMesh
nProcs : 1
trapFpe: Floating point exception trapping enabled (FOAM_SIGFPE).
fileModificationChecking : Monitoring run-time modified files using timeStampMaster (fileModificationSkew 5, maxFileModificationPolls 20)
allowSystemOperations : Allowing user-supplied system call operations

// * * * * * * * * * * * * * * * * * * * * * * * * * * * * * * * * * * * * * //
Create time

Create mesh for time = 0


SIMPLE: convergence criteria
    field T	 tolerance 1e-12

Create field T
First sampling time = 1
Delta time between samples = 1
Number of samplings = 10
Offline don't exist, performing the Offline Solve
POD don't exist, performing a POD decomposition
/*---------------------------------------------------------------------------*\
| =========                 |                                                 |
| \\      /  F ield         | OpenFOAM: The Open Source CFD Toolbox           |
|  \\    /   O peration     | Version:  v2012                                 |
|   \\  /    A nd           | Website:  www.openfoam.com                      |
|    \\/     M anipulation  |                                                 |
\*---------------------------------------------------------------------------*/
Build  : _7bdb509494-20201222 OPENFOAM=2012
Arch   : "LSB;label=32;scalar=64"
Exec   : sequentialAcquisitionTest
Date   : Mar 04 2021
Time   : 16:34:54
Host   : inspiron-UM
PID    : 24788
--> FOAM Warning : 
    From Foam::entry* Foam::dictionary::add(Foam::entry*, bool)
    in file db/dictionary/dictionary.C at line 777
    Reading "JobInfo" at line 0
    Attempt to add entry startDate which already exists in dictionary "JobInfo"
--> FOAM Warning : 
    From Foam::entry* Foam::dictionary::add(Foam::entry*, bool)
    in file db/dictionary/dictionary.C at line 777
    Reading "JobInfo" at line 0
    Attempt to add entry startTime which already exists in dictionary "JobInfo"
--> FOAM Warning : 
    From Foam::entry* Foam::dictionary::add(Foam::entry*, bool)
    in file db/dictionary/dictionary.C at line 777
    Reading "JobInfo" at line 0
    Attempt to add entry userName which already exists in dictionary "JobInfo"
--> FOAM Warning : 
    From Foam::entry* Foam::dictionary::add(Foam::entry*, bool)
    in file db/dictionary/dictionary.C at line 777
    Reading "JobInfo" at line 0
    Attempt to add entry foamVersion which already exists in dictionary "JobInfo"
--> FOAM Warning : 
    From Foam::entry* Foam::dictionary::add(Foam::entry*, bool)
    in file db/dictionary/dictionary.C at line 777
    Reading "JobInfo" at line 0
    Attempt to add entry code which already exists in dictionary "JobInfo"
--> FOAM Warning : 
    From Foam::entry* Foam::dictionary::add(Foam::entry*, bool)
    in file db/dictionary/dictionary.C at line 777
    Reading "JobInfo" at line 0
    Attempt to add entry argList which already exists in dictionary "JobInfo"
--> FOAM Warning : 
    From Foam::entry* Foam::dictionary::add(Foam::entry*, bool)
    in file db/dictionary/dictionary.C at line 777
    Reading "JobInfo" at line 0
    Attempt to add entry currentDir which already exists in dictionary "JobInfo"
--> FOAM Warning : 
    From Foam::entry* Foam::dictionary::add(Foam::entry*, bool)
    in file db/dictionary/dictionary.C at line 777
    Reading "JobInfo" at line 0
    Attempt to add entry PPID which already exists in dictionary "JobInfo"
--> FOAM Warning : 
    From Foam::entry* Foam::dictionary::add(Foam::entry*, bool)
    in file db/dictionary/dictionary.C at line 777
    Reading "JobInfo" at line 0
    Attempt to add entry PGID which already exists in dictionary "JobInfo"
--> FOAM Warning : 
    From Foam::entry* Foam::dictionary::add(Foam::entry*, bool)
    in file db/dictionary/dictionary.C at line 777
    Reading "JobInfo" at line 0
    Attempt to add entry foamBuild which already exists in dictionary "JobInfo"
I/O    : uncollated
Case   : /media/Data/ITHACA-FV/tutorials/inverseHeatTransfer/sequentialAcquisitionTest/coarseMesh
nProcs : 1
--> FOAM Warning : 
    From Foam::entry* Foam::dictionary::add(Foam::entry*, bool)
    in file db/dictionary/dictionary.C at line 777
    Reading "JobInfo" at line 0
    Attempt to add entry root which already exists in dictionary "JobInfo"
--> FOAM Warning : 
    From Foam::entry* Foam::dictionary::add(Foam::entry*, bool)
    in file db/dictionary/dictionary.C at line 777
    Reading "JobInfo" at line 0
    Attempt to add entry case which already exists in dictionary "JobInfo"
--> FOAM Warning : 
    From Foam::entry* Foam::dictionary::add(Foam::entry*, bool)
    in file db/dictionary/dictionary.C at line 777
    Reading "JobInfo" at line 0
    Attempt to add entry nProcs which already exists in dictionary "JobInfo"
fileModificationChecking : Monitoring run-time modified files using timeStampMaster (fileModificationSkew 5, maxFileModificationPolls 20)
allowSystemOperations : Allowing user-supplied system call operations

// * * * * * * * * * * * * * * * * * * * * * * * * * * * * * * * * * * * * * //
Create time

Create mesh for time = 0


SIMPLE: convergence criteria
    field T	 tolerance 1e-12

Create field T
Offline data already exist, reading existing data
POD data already exist, reading existing modes

 ************************************************************ 
Conducting chirp test to compare performance of steady and unsteady inverse solvers
We assume the heat flux to estimate has the shape:

 g = A + B sin [2 pi (a t) t] 
Maximum frequency is 0.1Hz
 
Using time basis of type constant

Defining positions of thermocouples
Reading thermocouples cells from file

SIMPLE: convergence criteria
    field T	 tolerance 1e-12

Ready for new computation

SIMPLE: convergence criteria
    field T	 tolerance 1e-12

DT = DT [1 1 -3 -1 0 0 0] 1
DICPCG:  Solving for T, Initial residual = 1, Final residual = 8.493746386756018e-13, No Iterations 30
DICPCG:  Solving for T, Initial residual = 5.321825050587684e-13, Final residual = 5.321825050587684e-13, No Iterations 0

SIMPLE solution converged in 0.2 iterations

Performing true computation

SIMPLE: convergence criteria
    field T	 tolerance 1e-12

Ready for new computation
Thermal diffusivity = 0.0001098491366947743 m2/s
Time = 0.1

DICPCG:  Solving for T, Initial residual = 6.570204776090509e-07, Final residual = 8.70714323043825e-13, No Iterations 2

ExecutionTime = 0.15 s  ClockTime = 1 s

Time = 0.2

DICPCG:  Solving for T, Initial residual = 2.628070522992854e-06, Final residual = 2.732428798666766e-15, No Iterations 3

ExecutionTime = 0.16 s  ClockTime = 1 s

Time = 0.3

DICPCG:  Solving for T, Initial residual = 5.913081965648754e-06, Final residual = 5.912450727932352e-15, No Iterations 3

ExecutionTime = 0.18 s  ClockTime = 1 s

Time = 0.4

DICPCG:  Solving for T, Initial residual = 1.051184837037172e-05, Final residual = 1.010163006126484e-14, No Iterations 3

ExecutionTime = 0.2 s  ClockTime = 1 s

Time = 0.5

DICPCG:  Solving for T, Initial residual = 1.642391178842679e-05, Final residual = 1.518600190474654e-14, No Iterations 3

ExecutionTime = 0.22 s  ClockTime = 1 s

Time = 0.6

DICPCG:  Solving for T, Initial residual = 2.364841842835718e-05, Final residual = 2.107196983149787e-14, No Iterations 3

ExecutionTime = 0.24 s  ClockTime = 1 s

Time = 0.7

DICPCG:  Solving for T, Initial residual = 3.218394344506927e-05, Final residual = 2.768482700316359e-14, No Iterations 3

ExecutionTime = 0.25 s  ClockTime = 1 s

Time = 0.8

DICPCG:  Solving for T, Initial residual = 4.20282850414955e-05, Final residual = 3.497364773326878e-14, No Iterations 3

ExecutionTime = 0.27 s  ClockTime = 1 s

Time = 0.9

DICPCG:  Solving for T, Initial residual = 5.317822766381475e-05, Final residual = 4.290763112693622e-14, No Iterations 3

ExecutionTime = 0.29 s  ClockTime = 1 s

Time = 1

DICPCG:  Solving for T, Initial residual = 6.562927422871897e-05, Final residual = 5.142338257436453e-14, No Iterations 3

ExecutionTime = 0.31 s  ClockTime = 1 s

Time = 1.1

DICPCG:  Solving for T, Initial residual = 7.937535572273324e-05, Final residual = 6.048786362934863e-14, No Iterations 3

ExecutionTime = 0.33 s  ClockTime = 1 s

Time = 1.2

DICPCG:  Solving for T, Initial residual = 9.440850222979994e-05, Final residual = 7.008427064707809e-14, No Iterations 3

ExecutionTime = 0.34 s  ClockTime = 1 s

Time = 1.3

DICPCG:  Solving for T, Initial residual = 0.0001107184923405719, Final residual = 8.016783738787154e-14, No Iterations 3

ExecutionTime = 0.37 s  ClockTime = 1 s

Time = 1.4

DICPCG:  Solving for T, Initial residual = 0.0001282924747673345, Final residual = 9.075534780706599e-14, No Iterations 3

ExecutionTime = 0.39 s  ClockTime = 1 s

Time = 1.5

DICPCG:  Solving for T, Initial residual = 0.0001471145650169004, Final residual = 1.018242880809934e-13, No Iterations 3

ExecutionTime = 0.41 s  ClockTime = 1 s

Time = 1.6

DICPCG:  Solving for T, Initial residual = 0.0001671654189426959, Final residual = 1.13297737356631e-13, No Iterations 3

ExecutionTime = 0.43 s  ClockTime = 1 s

Time = 1.7

DICPCG:  Solving for T, Initial residual = 0.0001884217588197663, Final residual = 1.251716283306106e-13, No Iterations 3

ExecutionTime = 0.45 s  ClockTime = 2 s

Time = 1.8

DICPCG:  Solving for T, Initial residual = 0.0002108559700014671, Final residual = 1.373924313268708e-13, No Iterations 3

ExecutionTime = 0.46 s  ClockTime = 2 s

Time = 1.9

DICPCG:  Solving for T, Initial residual = 0.0002344354857936163, Final residual = 1.499670793989001e-13, No Iterations 3

ExecutionTime = 0.48 s  ClockTime = 2 s

Time = 2

DICPCG:  Solving for T, Initial residual = 0.000259122484938373, Final residual = 1.628101307462837e-13, No Iterations 3

ExecutionTime = 0.5 s  ClockTime = 2 s

Time = 2.1

DICPCG:  Solving for T, Initial residual = 0.00028487326168578, Final residual = 1.758786889545314e-13, No Iterations 3

ExecutionTime = 0.52 s  ClockTime = 2 s

Time = 2.2

DICPCG:  Solving for T, Initial residual = 0.0003116378263331475, Final residual = 1.89132265552336e-13, No Iterations 3

ExecutionTime = 0.54 s  ClockTime = 2 s

Time = 2.3

DICPCG:  Solving for T, Initial residual = 0.0003393592847445729, Final residual = 2.02517410754035e-13, No Iterations 3

ExecutionTime = 0.55 s  ClockTime = 2 s

Time = 2.4

DICPCG:  Solving for T, Initial residual = 0.0003679733908329384, Final residual = 2.159847272439758e-13, No Iterations 3

ExecutionTime = 0.57 s  ClockTime = 2 s

Time = 2.5

DICPCG:  Solving for T, Initial residual = 0.0003974079569296253, Final residual = 2.29487622208116e-13, No Iterations 3

ExecutionTime = 0.59 s  ClockTime = 2 s

Time = 2.6

DICPCG:  Solving for T, Initial residual = 0.0004275826234606087, Final residual = 2.429809178516285e-13, No Iterations 3

ExecutionTime = 0.61 s  ClockTime = 2 s

Time = 2.7

DICPCG:  Solving for T, Initial residual = 0.0004584080529723076, Final residual = 2.563973051652879e-13, No Iterations 3

ExecutionTime = 0.63 s  ClockTime = 2 s

Time = 2.8

DICPCG:  Solving for T, Initial residual = 0.0004897860313010293, Final residual = 2.696524669912394e-13, No Iterations 3

ExecutionTime = 0.65 s  ClockTime = 2 s

Time = 2.9

DICPCG:  Solving for T, Initial residual = 0.00052160879456431, Final residual = 2.826683549495912e-13, No Iterations 3

ExecutionTime = 0.66 s  ClockTime = 2 s

Time = 3

DICPCG:  Solving for T, Initial residual = 0.0005537587442738692, Final residual = 2.953592467672921e-13, No Iterations 3

ExecutionTime = 0.68 s  ClockTime = 2 s

Time = 3.1

DICPCG:  Solving for T, Initial residual = 0.0005861081984591632, Final residual = 3.076371167195226e-13, No Iterations 3

ExecutionTime = 0.7 s  ClockTime = 2 s

Time = 3.2

DICPCG:  Solving for T, Initial residual = 0.0006185194384937731, Final residual = 3.194105473308214e-13, No Iterations 3

ExecutionTime = 0.73 s  ClockTime = 2 s

Time = 3.3

DICPCG:  Solving for T, Initial residual = 0.0006508437976669688, Final residual = 3.305901317106734e-13, No Iterations 3

ExecutionTime = 0.75 s  ClockTime = 2 s

Time = 3.4

DICPCG:  Solving for T, Initial residual = 0.0006829223499581598, Final residual = 3.41100589512129e-13, No Iterations 3

ExecutionTime = 0.77 s  ClockTime = 2 s

Time = 3.5

DICPCG:  Solving for T, Initial residual = 0.0007145869973176042, Final residual = 3.509194555191593e-13, No Iterations 3

ExecutionTime = 0.79 s  ClockTime = 2 s

Time = 3.6

DICPCG:  Solving for T, Initial residual = 0.0007456585520848306, Final residual = 3.599307238672801e-13, No Iterations 3

ExecutionTime = 0.8 s  ClockTime = 3 s

Time = 3.7

DICPCG:  Solving for T, Initial residual = 0.0007759481763830397, Final residual = 3.679790414858677e-13, No Iterations 3

ExecutionTime = 0.82 s  ClockTime = 3 s

Time = 3.8

DICPCG:  Solving for T, Initial residual = 0.000805258869213786, Final residual = 3.749358509215399e-13, No Iterations 3

ExecutionTime = 0.84 s  ClockTime = 3 s

Time = 3.9

DICPCG:  Solving for T, Initial residual = 0.0008333828017490937, Final residual = 3.80690443456724e-13, No Iterations 3

ExecutionTime = 0.85 s  ClockTime = 3 s

Time = 4

DICPCG:  Solving for T, Initial residual = 0.0008601052851868855, Final residual = 3.851128694613027e-13, No Iterations 3

ExecutionTime = 0.87 s  ClockTime = 3 s

Time = 4.1

DICPCG:  Solving for T, Initial residual = 0.0008852049202478791, Final residual = 3.880831721184734e-13, No Iterations 3

ExecutionTime = 0.89 s  ClockTime = 3 s

Time = 4.2

DICPCG:  Solving for T, Initial residual = 0.0009084537332147283, Final residual = 3.894811130939435e-13, No Iterations 3

ExecutionTime = 0.91 s  ClockTime = 3 s

Time = 4.3

DICPCG:  Solving for T, Initial residual = 0.0009296191817271313, Final residual = 3.892286247029243e-13, No Iterations 3

ExecutionTime = 0.93 s  ClockTime = 3 s

Time = 4.4

DICPCG:  Solving for T, Initial residual = 0.0009484642513300763, Final residual = 3.872039172695429e-13, No Iterations 3

ExecutionTime = 0.95 s  ClockTime = 3 s

Time = 4.5

DICPCG:  Solving for T, Initial residual = 0.0009647515864634916, Final residual = 3.833324335637131e-13, No Iterations 3

ExecutionTime = 0.97 s  ClockTime = 3 s

Time = 4.6

DICPCG:  Solving for T, Initial residual = 0.000978241778312053, Final residual = 3.774750960095021e-13, No Iterations 3

ExecutionTime = 0.99 s  ClockTime = 3 s

Time = 4.7

DICPCG:  Solving for T, Initial residual = 0.0009886967487788545, Final residual = 3.694825953829552e-13, No Iterations 3

ExecutionTime = 1.01 s  ClockTime = 3 s

Time = 4.8

DICPCG:  Solving for T, Initial residual = 0.0009958812427578974, Final residual = 3.591456709596416e-13, No Iterations 3

ExecutionTime = 1.02 s  ClockTime = 3 s

Time = 4.9

DICPCG:  Solving for T, Initial residual = 0.0009995662358064214, Final residual = 3.463771304935964e-13, No Iterations 3

ExecutionTime = 1.04 s  ClockTime = 3 s

Time = 5

DICPCG:  Solving for T, Initial residual = 0.0009995302959075103, Final residual = 3.311697301803101e-13, No Iterations 3

ExecutionTime = 1.05 s  ClockTime = 3 s

Time = 5.1

DICPCG:  Solving for T, Initial residual = 0.0009955622256348057, Final residual = 3.13192511478498e-13, No Iterations 3

ExecutionTime = 1.07 s  ClockTime = 3 s

Time = 5.2

DICPCG:  Solving for T, Initial residual = 0.0009874637279555472, Final residual = 2.922618894909069e-13, No Iterations 3

ExecutionTime = 1.09 s  ClockTime = 3 s

Time = 5.3

DICPCG:  Solving for T, Initial residual = 0.0009750500657788693, Final residual = 2.684401813144726e-13, No Iterations 3

ExecutionTime = 1.11 s  ClockTime = 3 s

Time = 5.4

DICPCG:  Solving for T, Initial residual = 0.0009581559831015023, Final residual = 2.415739571399931e-13, No Iterations 3

ExecutionTime = 1.14 s  ClockTime = 4 s

Time = 5.5

DICPCG:  Solving for T, Initial residual = 0.0009366375725457934, Final residual = 2.12114091333259e-13, No Iterations 3

ExecutionTime = 1.16 s  ClockTime = 4 s

Time = 5.6

DICPCG:  Solving for T, Initial residual = 0.0009103741067288055, Final residual = 1.784611649587644e-13, No Iterations 3

ExecutionTime = 1.17 s  ClockTime = 4 s

Time = 5.7

DICPCG:  Solving for T, Initial residual = 0.000879270680782891, Final residual = 1.388746577971962e-13, No Iterations 3

ExecutionTime = 1.19 s  ClockTime = 4 s

Time = 5.8

DICPCG:  Solving for T, Initial residual = 0.0008432638621280213, Final residual = 1.320145431485361e-13, No Iterations 3

ExecutionTime = 1.2 s  ClockTime = 4 s

Time = 5.9

DICPCG:  Solving for T, Initial residual = 0.0008023220592891809, Final residual = 1.59624740860602e-13, No Iterations 3

ExecutionTime = 1.23 s  ClockTime = 4 s

Time = 6

DICPCG:  Solving for T, Initial residual = 0.0007564496262553005, Final residual = 1.845129390921907e-13, No Iterations 3

ExecutionTime = 1.24 s  ClockTime = 4 s

Time = 6.1

DICPCG:  Solving for T, Initial residual = 0.0007243402315092908, Final residual = 2.051757392009148e-13, No Iterations 3

ExecutionTime = 1.26 s  ClockTime = 4 s

Time = 6.2

DICPCG:  Solving for T, Initial residual = 0.0007269341934882434, Final residual = 2.285920900767066e-13, No Iterations 3

ExecutionTime = 1.27 s  ClockTime = 4 s

Time = 6.3

DICPCG:  Solving for T, Initial residual = 0.0007267342264350881, Final residual = 2.530863797084932e-13, No Iterations 3

ExecutionTime = 1.29 s  ClockTime = 4 s

Time = 6.4

DICPCG:  Solving for T, Initial residual = 0.0007235702298573777, Final residual = 2.745824358745994e-13, No Iterations 3

ExecutionTime = 1.31 s  ClockTime = 4 s

Time = 6.5

DICPCG:  Solving for T, Initial residual = 0.0007172801313991477, Final residual = 2.95482425338389e-13, No Iterations 3

ExecutionTime = 1.33 s  ClockTime = 4 s

Time = 6.6

DICPCG:  Solving for T, Initial residual = 0.000707712255259626, Final residual = 3.181313583646986e-13, No Iterations 3

ExecutionTime = 1.35 s  ClockTime = 4 s

Time = 6.7

DICPCG:  Solving for T, Initial residual = 0.000727936581037867, Final residual = 3.463080598714691e-13, No Iterations 3

ExecutionTime = 1.36 s  ClockTime = 4 s

Time = 6.8

DICPCG:  Solving for T, Initial residual = 0.0007522210492641431, Final residual = 3.847262510268493e-13, No Iterations 3

ExecutionTime = 1.38 s  ClockTime = 4 s

Time = 6.9

DICPCG:  Solving for T, Initial residual = 0.0007738185489419346, Final residual = 4.281964562303161e-13, No Iterations 3

ExecutionTime = 1.4 s  ClockTime = 4 s

Time = 7

DICPCG:  Solving for T, Initial residual = 0.0007998798883406735, Final residual = 4.652312510841794e-13, No Iterations 3

ExecutionTime = 1.41 s  ClockTime = 4 s

Time = 7.1

DICPCG:  Solving for T, Initial residual = 0.0008458677641182414, Final residual = 4.914663594427738e-13, No Iterations 3

ExecutionTime = 1.43 s  ClockTime = 4 s

Time = 7.2

DICPCG:  Solving for T, Initial residual = 0.0008888039793939429, Final residual = 5.17212882741625e-13, No Iterations 3

ExecutionTime = 1.45 s  ClockTime = 4 s

Time = 7.3

DICPCG:  Solving for T, Initial residual = 0.0009281226032714805, Final residual = 5.40383821818252e-13, No Iterations 3

ExecutionTime = 1.46 s  ClockTime = 5 s

Time = 7.4

DICPCG:  Solving for T, Initial residual = 0.0009766575450627986, Final residual = 5.618560844105149e-13, No Iterations 3

ExecutionTime = 1.48 s  ClockTime = 5 s

Time = 7.5

DICPCG:  Solving for T, Initial residual = 0.001030793989711645, Final residual = 5.872706674588258e-13, No Iterations 3

ExecutionTime = 1.51 s  ClockTime = 5 s

Time = 7.6

DICPCG:  Solving for T, Initial residual = 0.001079934275591268, Final residual = 6.081509423454677e-13, No Iterations 3

ExecutionTime = 1.53 s  ClockTime = 5 s

Time = 7.7

DICPCG:  Solving for T, Initial residual = 0.001123320461635203, Final residual = 6.261021898248194e-13, No Iterations 3

ExecutionTime = 1.54 s  ClockTime = 5 s

Time = 7.8

DICPCG:  Solving for T, Initial residual = 0.001174514533249192, Final residual = 6.431850967896672e-13, No Iterations 3

ExecutionTime = 1.57 s  ClockTime = 5 s

Time = 7.9

DICPCG:  Solving for T, Initial residual = 0.001222316607768927, Final residual = 6.54496191450367e-13, No Iterations 3

ExecutionTime = 1.58 s  ClockTime = 5 s

Time = 8

DICPCG:  Solving for T, Initial residual = 0.001262273459455042, Final residual = 6.613631888830463e-13, No Iterations 3

ExecutionTime = 1.6 s  ClockTime = 5 s

Time = 8.1

DICPCG:  Solving for T, Initial residual = 0.001293543402587567, Final residual = 6.64657555035177e-13, No Iterations 3

ExecutionTime = 1.62 s  ClockTime = 5 s

Time = 8.2

DICPCG:  Solving for T, Initial residual = 0.001327636762406353, Final residual = 6.608764535937236e-13, No Iterations 3

ExecutionTime = 1.64 s  ClockTime = 5 s

Time = 8.3

DICPCG:  Solving for T, Initial residual = 0.001352909541218257, Final residual = 6.495746384479788e-13, No Iterations 3

ExecutionTime = 1.66 s  ClockTime = 5 s

Time = 8.4

DICPCG:  Solving for T, Initial residual = 0.001367226613837208, Final residual = 6.323966527513068e-13, No Iterations 3

ExecutionTime = 1.67 s  ClockTime = 5 s

Time = 8.5

DICPCG:  Solving for T, Initial residual = 0.001369865475687699, Final residual = 6.07557918611577e-13, No Iterations 3

ExecutionTime = 1.68 s  ClockTime = 5 s

Time = 8.6

DICPCG:  Solving for T, Initial residual = 0.001369042804657615, Final residual = 5.743686433111525e-13, No Iterations 3

ExecutionTime = 1.7 s  ClockTime = 5 s

Time = 8.7

DICPCG:  Solving for T, Initial residual = 0.001356860715403928, Final residual = 5.341324081551507e-13, No Iterations 3

ExecutionTime = 1.72 s  ClockTime = 5 s

Time = 8.8

DICPCG:  Solving for T, Initial residual = 0.001331405889307846, Final residual = 4.844748583373843e-13, No Iterations 3

ExecutionTime = 1.74 s  ClockTime = 5 s

Time = 8.9

DICPCG:  Solving for T, Initial residual = 0.001292376951648529, Final residual = 4.25965174950784e-13, No Iterations 3

ExecutionTime = 1.76 s  ClockTime = 5 s

Time = 9

DICPCG:  Solving for T, Initial residual = 0.001244472927881589, Final residual = 3.590676884583271e-13, No Iterations 3

ExecutionTime = 1.78 s  ClockTime = 5 s

Time = 9.1

DICPCG:  Solving for T, Initial residual = 0.001185706342388078, Final residual = 2.803357007750114e-13, No Iterations 3

ExecutionTime = 1.8 s  ClockTime = 5 s

Time = 9.2

DICPCG:  Solving for T, Initial residual = 0.001113447663984842, Final residual = 1.810646181481967e-13, No Iterations 3

ExecutionTime = 1.83 s  ClockTime = 6 s

Time = 9.3

DICPCG:  Solving for T, Initial residual = 0.001028139904959282, Final residual = 2.140410886632176e-13, No Iterations 3

ExecutionTime = 1.85 s  ClockTime = 6 s

Time = 9.4

DICPCG:  Solving for T, Initial residual = 0.0009313499463466961, Final residual = 2.632728579154116e-13, No Iterations 3

ExecutionTime = 1.86 s  ClockTime = 6 s

Time = 9.5

DICPCG:  Solving for T, Initial residual = 0.0008608293706989132, Final residual = 3.016090679103807e-13, No Iterations 3

ExecutionTime = 1.88 s  ClockTime = 6 s

Time = 9.6

DICPCG:  Solving for T, Initial residual = 0.0008690797347019445, Final residual = 3.408816869665955e-13, No Iterations 3

ExecutionTime = 1.9 s  ClockTime = 6 s

Time = 9.7

DICPCG:  Solving for T, Initial residual = 0.0008682233997216859, Final residual = 3.715581001776382e-13, No Iterations 3

ExecutionTime = 1.92 s  ClockTime = 6 s

Time = 9.8

DICPCG:  Solving for T, Initial residual = 0.0008578763179417971, Final residual = 3.924391531074927e-13, No Iterations 3

ExecutionTime = 1.94 s  ClockTime = 6 s

Time = 9.9

DICPCG:  Solving for T, Initial residual = 0.0008391566953724049, Final residual = 4.04604238021832e-13, No Iterations 3

ExecutionTime = 1.96 s  ClockTime = 6 s

Time = 10

DICPCG:  Solving for T, Initial residual = 0.0008455403210502036, Final residual = 4.414501180779326e-13, No Iterations 3

ExecutionTime = 1.98 s  ClockTime = 6 s


 Sampling for ALL sampling times 



Sampling done 

End


SIMPLE: convergence criteria
    field T	 tolerance 1e-12

Ready for new computation
Reading thermocouples cells from file
*********************************************************
Performing offline part of STEADY test

Radial Basis Functions are used.
gWeights = 15{0}

Computing offline

SIMPLE: convergence criteria
    field T	 tolerance 1e-12

Ready for new computation
DICPCG:  Solving for T, Initial residual = 1, Final residual = 4.179158024480434e-13, No Iterations 30
Solving for j = 0

SIMPLE: convergence criteria
    field T	 tolerance 1e-12

Ready for new computation
DICPCG:  Solving for T, Initial residual = 1, Final residual = 4.179166101163202e-13, No Iterations 30
Solving for j = 1

SIMPLE: convergence criteria
    field T	 tolerance 1e-12

Ready for new computation
DICPCG:  Solving for T, Initial residual = 1, Final residual = 4.179161753443145e-13, No Iterations 30
Solving for j = 2

SIMPLE: convergence criteria
    field T	 tolerance 1e-12

Ready for new computation
DICPCG:  Solving for T, Initial residual = 1, Final residual = 4.179156863287667e-13, No Iterations 30
Solving for j = 3

SIMPLE: convergence criteria
    field T	 tolerance 1e-12

Ready for new computation
DICPCG:  Solving for T, Initial residual = 1, Final residual = 4.179151991782252e-13, No Iterations 30
Solving for j = 4

SIMPLE: convergence criteria
    field T	 tolerance 1e-12

Ready for new computation
DICPCG:  Solving for T, Initial residual = 1, Final residual = 4.179147700825619e-13, No Iterations 30
Solving for j = 5

SIMPLE: convergence criteria
    field T	 tolerance 1e-12

Ready for new computation
DICPCG:  Solving for T, Initial residual = 1, Final residual = 4.179166463205719e-13, No Iterations 30
Solving for j = 6

SIMPLE: convergence criteria
    field T	 tolerance 1e-12

Ready for new computation
DICPCG:  Solving for T, Initial residual = 1, Final residual = 4.179161890712304e-13, No Iterations 30
Solving for j = 7

SIMPLE: convergence criteria
    field T	 tolerance 1e-12

Ready for new computation
DICPCG:  Solving for T, Initial residual = 1, Final residual = 4.179156749096061e-13, No Iterations 30
Solving for j = 8

SIMPLE: convergence criteria
    field T	 tolerance 1e-12

Ready for new computation
DICPCG:  Solving for T, Initial residual = 1, Final residual = 4.179151628194094e-13, No Iterations 30
Solving for j = 9

SIMPLE: convergence criteria
    field T	 tolerance 1e-12

Ready for new computation
DICPCG:  Solving for T, Initial residual = 1, Final residual = 4.179147118703945e-13, No Iterations 30
Solving for j = 10

SIMPLE: convergence criteria
    field T	 tolerance 1e-12

Ready for new computation
DICPCG:  Solving for T, Initial residual = 1, Final residual = 4.179166311624432e-13, No Iterations 30
Solving for j = 11

SIMPLE: convergence criteria
    field T	 tolerance 1e-12

Ready for new computation
DICPCG:  Solving for T, Initial residual = 1, Final residual = 4.179161784897329e-13, No Iterations 30
Solving for j = 12

SIMPLE: convergence criteria
    field T	 tolerance 1e-12

Ready for new computation
DICPCG:  Solving for T, Initial residual = 1, Final residual = 4.179156696168549e-13, No Iterations 30
Solving for j = 13

SIMPLE: convergence criteria
    field T	 tolerance 1e-12

Ready for new computation
DICPCG:  Solving for T, Initial residual = 1, Final residual = 4.179151629118322e-13, No Iterations 30
Solving for j = 14

SIMPLE: convergence criteria
    field T	 tolerance 1e-12

Ready for new computation
DICPCG:  Solving for T, Initial residual = 1, Final residual = 4.179147168310692e-13, No Iterations 30
######### Exporting the Data for T #########
  6% [||||                                                        ] 13% [||||||||                                                    ] 20% [||||||||||||                                                ] 26% [||||||||||||||||                                            ] 33% [||||||||||||||||||||                                        ] 40% [||||||||||||||||||||||||                                    ] 46% [||||||||||||||||||||||||||||                                ] 53% [||||||||||||||||||||||||||||||||                            ] 60% [||||||||||||||||||||||||||||||||||||                        ] 66% [||||||||||||||||||||||||||||||||||||||||                    ] 73% [||||||||||||||||||||||||||||||||||||||||||||                ] 80% [||||||||||||||||||||||||||||||||||||||||||||||||            ] 86% [||||||||||||||||||||||||||||||||||||||||||||||||||||        ] 93% [||||||||||||||||||||||||||||||||||||||||||||||||||||||||    ]100% [||||||||||||||||||||||||||||||||||||||||||||||||||||||||||||]

Offline part ENDED

Condition number = 1.220947657258528e+16
*********************************************************
Performing STEADY test for sampling time 1 s

Solver: fullPivLU 


Using quasilinearity of direct problem
Theta size = 15, 15
Reconstructing field T

SIMPLE: convergence criteria
    field T	 tolerance 1e-12

Ready for new computation
J = 0.0001156935377631807
End

Computation ENDED, saving solution

*********************************************************
Performing STEADY test for sampling time 2 s

Solver: fullPivLU 


Using quasilinearity of direct problem
Theta size = 15, 15
Reconstructing field T

SIMPLE: convergence criteria
    field T	 tolerance 1e-12

Ready for new computation
J = 0.0001161638678178877
End

Computation ENDED, saving solution

*********************************************************
Performing STEADY test for sampling time 3 s

Solver: fullPivLU 


Using quasilinearity of direct problem
Theta size = 15, 15
Reconstructing field T

SIMPLE: convergence criteria
    field T	 tolerance 1e-12

Ready for new computation
J = 0.0001175860499506931
End

Computation ENDED, saving solution

*********************************************************
Performing STEADY test for sampling time 4 s

Solver: fullPivLU 


Using quasilinearity of direct problem
Theta size = 15, 15
Reconstructing field T

SIMPLE: convergence criteria
    field T	 tolerance 1e-12

Ready for new computation
J = 0.0001202452868849274
End

Computation ENDED, saving solution

*********************************************************
Performing STEADY test for sampling time 5 s

Solver: fullPivLU 


Using quasilinearity of direct problem
Theta size = 15, 15
Reconstructing field T

SIMPLE: convergence criteria
    field T	 tolerance 1e-12

Ready for new computation
J = 0.0001239678015903289
End

Computation ENDED, saving solution

*********************************************************
Performing STEADY test for sampling time 6 s

Solver: fullPivLU 


Using quasilinearity of direct problem
Theta size = 15, 15
Reconstructing field T

SIMPLE: convergence criteria
    field T	 tolerance 1e-12

Ready for new computation
J = 0.0001276409797084968
End

Computation ENDED, saving solution

*********************************************************
Performing STEADY test for sampling time 7 s

Solver: fullPivLU 


Using quasilinearity of direct problem
Theta size = 15, 15
Reconstructing field T

SIMPLE: convergence criteria
    field T	 tolerance 1e-12

Ready for new computation
J = 0.0001292913924781475
End

Computation ENDED, saving solution

*********************************************************
Performing STEADY test for sampling time 8 s

Solver: fullPivLU 


Using quasilinearity of direct problem
Theta size = 15, 15
Reconstructing field T

SIMPLE: convergence criteria
    field T	 tolerance 1e-12

Ready for new computation
J = 0.0001271316743751728
End

Computation ENDED, saving solution

*********************************************************
Performing STEADY test for sampling time 9 s

Solver: fullPivLU 


Using quasilinearity of direct problem
Theta size = 15, 15
Reconstructing field T

SIMPLE: convergence criteria
    field T	 tolerance 1e-12

Ready for new computation
J = 0.0001222018606288078
End

Computation ENDED, saving solution

*********************************************************
Performing STEADY test for sampling time 10 s

Solver: fullPivLU 


Using quasilinearity of direct problem
Theta size = 15, 15
Reconstructing field T

SIMPLE: convergence criteria
    field T	 tolerance 1e-12

Ready for new computation
J = 0.000118517173958937
End

Computation ENDED, saving solution

Computing errors
######### Reading the Data for gParametrized #########
 16% [||||||||||                                                  ] 25% [|||||||||||||||                                             ] 33% [||||||||||||||||||||                                        ] 41% [|||||||||||||||||||||||||                                   ] 50% [||||||||||||||||||||||||||||||                              ] 58% [|||||||||||||||||||||||||||||||||||                         ] 66% [||||||||||||||||||||||||||||||||||||||||                    ] 75% [|||||||||||||||||||||||||||||||||||||||||||||               ] 83% [||||||||||||||||||||||||||||||||||||||||||||||||||          ] 91% [|||||||||||||||||||||||||||||||||||||||||||||||||||||||     ]100% [||||||||||||||||||||||||||||||||||||||||||||||||||||||||||||]
######### Reading the Data for gTrue #########
 16% [||||||||||                                                  ] 25% [|||||||||||||||                                             ] 33% [||||||||||||||||||||                                        ] 41% [|||||||||||||||||||||||||                                   ] 50% [||||||||||||||||||||||||||||||                              ] 58% [|||||||||||||||||||||||||||||||||||                         ] 66% [||||||||||||||||||||||||||||||||||||||||                    ] 75% [|||||||||||||||||||||||||||||||||||||||||||||               ] 83% [||||||||||||||||||||||||||||||||||||||||||||||||||          ] 91% [|||||||||||||||||||||||||||||||||||||||||||||||||||||||     ]100% [||||||||||||||||||||||||||||||||||||||||||||||||||||||||||||]
######### Reading the Data for T #########
 16% [||||||||||                                                  ] 25% [|||||||||||||||                                             ] 33% [||||||||||||||||||||                                        ] 41% [|||||||||||||||||||||||||                                   ] 50% [||||||||||||||||||||||||||||||                              ] 58% [|||||||||||||||||||||||||||||||||||                         ] 66% [||||||||||||||||||||||||||||||||||||||||                    ] 75% [|||||||||||||||||||||||||||||||||||||||||||||               ] 83% [||||||||||||||||||||||||||||||||||||||||||||||||||          ] 91% [|||||||||||||||||||||||||||||||||||||||||||||||||||||||     ]100% [||||||||||||||||||||||||||||||||||||||||||||||||||||||||||||]
Radial Basis Functions are used.
The center of each function is at the projection 
of each thermocouple on the boundary hotSide.

Using CONSTANT basis in time

Computing offline
Theta size = 15, 15
Solving additional problem
Setting endTime to offlineEndTime

SIMPLE: convergence criteria
    field T	 tolerance 1e-12

Ready for new computation
Ready for new offline computation
Time = 0.1

DICPCG:  Solving for T, Initial residual = 1, Final residual = 5.471507509866173e-13, No Iterations 4
ExecutionTime = 2.89 s  ClockTime = 8 s

Time = 0.2

DICPCG:  Solving for T, Initial residual = 0.2036896347331173, Final residual = 9.884014559553049e-14, No Iterations 4
ExecutionTime = 2.9 s  ClockTime = 8 s

Time = 0.3

DICPCG:  Solving for T, Initial residual = 0.1130637514681636, Final residual = 4.852103375809607e-14, No Iterations 4
ExecutionTime = 2.91 s  ClockTime = 8 s

Time = 0.4

DICPCG:  Solving for T, Initial residual = 0.07750726765479704, Final residual = 2.893513840567946e-14, No Iterations 4
ExecutionTime = 2.91 s  ClockTime = 8 s

Time = 0.5

DICPCG:  Solving for T, Initial residual = 0.05858965286872692, Final residual = 1.882138351450874e-14, No Iterations 4
ExecutionTime = 2.92 s  ClockTime = 8 s

Time = 0.6

DICPCG:  Solving for T, Initial residual = 0.04718885152544385, Final residual = 1.318145662133883e-14, No Iterations 4
ExecutionTime = 2.93 s  ClockTime = 8 s

Time = 0.7

DICPCG:  Solving for T, Initial residual = 0.03951584733503265, Final residual = 9.792895397873385e-15, No Iterations 4
ExecutionTime = 2.94 s  ClockTime = 9 s

Time = 0.8

DICPCG:  Solving for T, Initial residual = 0.03400309315492323, Final residual = 7.64533395931731e-15, No Iterations 4
ExecutionTime = 2.95 s  ClockTime = 9 s

Time = 0.9

DICPCG:  Solving for T, Initial residual = 0.02985616571999591, Final residual = 6.186680857901159e-15, No Iterations 4
ExecutionTime = 2.97 s  ClockTime = 9 s

Time = 1

DICPCG:  Solving for T, Initial residual = 0.02667709500027988, Final residual = 5.153216273416923e-15, No Iterations 4
ExecutionTime = 2.97 s  ClockTime = 9 s

Tad_time.size = 10
Ntime = 100

Field size = 10.
Sampling ONLY the last timestep



Sampling done 

END 


--------------------------------------

Base 1 of 15

--------------------------------------


SIMPLE: convergence criteria
    field T	 tolerance 1e-12

Ready for new computation
Setting endTime to offlineEndTime

SIMPLE: convergence criteria
    field T	 tolerance 1e-12

Ready for new computation
Ready for new offline computation
Time = 0.1

DICPCG:  Solving for T, Initial residual = 1, Final residual = 5.471506429715632e-13, No Iterations 4
ExecutionTime = 2.98 s  ClockTime = 9 s

Time = 0.2

DICPCG:  Solving for T, Initial residual = 0.2036896506601615, Final residual = 9.884013213596105e-14, No Iterations 4
ExecutionTime = 2.98 s  ClockTime = 9 s

Time = 0.3

DICPCG:  Solving for T, Initial residual = 0.1130637612946862, Final residual = 4.852102720067718e-14, No Iterations 4
ExecutionTime = 2.98 s  ClockTime = 9 s

Time = 0.4

DICPCG:  Solving for T, Initial residual = 0.07750727362034426, Final residual = 2.893513441754902e-14, No Iterations 4
ExecutionTime = 2.99 s  ClockTime = 9 s

Time = 0.5

DICPCG:  Solving for T, Initial residual = 0.05858965555400789, Final residual = 1.882138085727256e-14, No Iterations 4
ExecutionTime = 2.99 s  ClockTime = 9 s

Time = 0.6

DICPCG:  Solving for T, Initial residual = 0.04718885065186068, Final residual = 1.318145466816919e-14, No Iterations 4
ExecutionTime = 2.99 s  ClockTime = 9 s

Time = 0.7

DICPCG:  Solving for T, Initial residual = 0.03951584274762455, Final residual = 9.792893922109639e-15, No Iterations 4
ExecutionTime = 2.99 s  ClockTime = 9 s

Time = 0.8

DICPCG:  Solving for T, Initial residual = 0.03400308616240708, Final residual = 7.645332710844801e-15, No Iterations 4
ExecutionTime = 2.99 s  ClockTime = 9 s

Time = 0.9

DICPCG:  Solving for T, Initial residual = 0.02985615870847968, Final residual = 6.186679844976584e-15, No Iterations 4
ExecutionTime = 3 s  ClockTime = 9 s

Time = 1

DICPCG:  Solving for T, Initial residual = 0.02667708845322728, Final residual = 5.153215450669107e-15, No Iterations 4
ExecutionTime = 3 s  ClockTime = 9 s

Direct computation ENDED

Field size = 10.
Sampling ONLY the last timestep



Sampling done 


--------------------------------------

Base 2 of 15

--------------------------------------


SIMPLE: convergence criteria
    field T	 tolerance 1e-12

Ready for new computation
Setting endTime to offlineEndTime

SIMPLE: convergence criteria
    field T	 tolerance 1e-12

Ready for new computation
Ready for new offline computation
Time = 0.1

DICPCG:  Solving for T, Initial residual = 1, Final residual = 5.471506468868304e-13, No Iterations 4
ExecutionTime = 3.12 s  ClockTime = 9 s

Time = 0.2

DICPCG:  Solving for T, Initial residual = 0.2036896501170787, Final residual = 9.884013264059893e-14, No Iterations 4
ExecutionTime = 3.13 s  ClockTime = 9 s

Time = 0.3

DICPCG:  Solving for T, Initial residual = 0.1130637609422599, Final residual = 4.852102744766436e-14, No Iterations 4
ExecutionTime = 3.13 s  ClockTime = 9 s

Time = 0.4

DICPCG:  Solving for T, Initial residual = 0.07750727339542765, Final residual = 2.893513456806019e-14, No Iterations 4
ExecutionTime = 3.13 s  ClockTime = 9 s

Time = 0.5

DICPCG:  Solving for T, Initial residual = 0.05858965538520228, Final residual = 1.882138095748031e-14, No Iterations 4
ExecutionTime = 3.13 s  ClockTime = 9 s

Time = 0.6

DICPCG:  Solving for T, Initial residual = 0.04718885061473865, Final residual = 1.318145474164638e-14, No Iterations 4
ExecutionTime = 3.14 s  ClockTime = 9 s

Time = 0.7

DICPCG:  Solving for T, Initial residual = 0.03951584274256602, Final residual = 9.792893977694304e-15, No Iterations 4
ExecutionTime = 3.14 s  ClockTime = 9 s

Time = 0.8

DICPCG:  Solving for T, Initial residual = 0.03400308628165905, Final residual = 7.645332757765747e-15, No Iterations 4
ExecutionTime = 3.14 s  ClockTime = 9 s

Time = 0.9

DICPCG:  Solving for T, Initial residual = 0.02985615894628939, Final residual = 6.1866798825184e-15, No Iterations 4
ExecutionTime = 3.14 s  ClockTime = 9 s

Time = 1

DICPCG:  Solving for T, Initial residual = 0.02667708867528404, Final residual = 5.153215481073678e-15, No Iterations 4
ExecutionTime = 3.14 s  ClockTime = 9 s

Direct computation ENDED

Field size = 10.
Sampling ONLY the last timestep



Sampling done 


--------------------------------------

Base 3 of 15

--------------------------------------


SIMPLE: convergence criteria
    field T	 tolerance 1e-12

Ready for new computation
Setting endTime to offlineEndTime

SIMPLE: convergence criteria
    field T	 tolerance 1e-12

Ready for new computation
Ready for new offline computation
Time = 0.1

DICPCG:  Solving for T, Initial residual = 1, Final residual = 5.47150647974384e-13, No Iterations 4
ExecutionTime = 3.27 s  ClockTime = 10 s

Time = 0.2

DICPCG:  Solving for T, Initial residual = 0.2036896499792902, Final residual = 9.884013278593097e-14, No Iterations 4
ExecutionTime = 3.27 s  ClockTime = 10 s

Time = 0.3

DICPCG:  Solving for T, Initial residual = 0.1130637608528451, Final residual = 4.852102751902828e-14, No Iterations 4
ExecutionTime = 3.27 s  ClockTime = 10 s

Time = 0.4

DICPCG:  Solving for T, Initial residual = 0.07750727333836367, Final residual = 2.89351346117062e-14, No Iterations 4
ExecutionTime = 3.27 s  ClockTime = 10 s

Time = 0.5

DICPCG:  Solving for T, Initial residual = 0.05858965534237412, Final residual = 1.882138098650155e-14, No Iterations 4
ExecutionTime = 3.27 s  ClockTime = 10 s

Time = 0.6

DICPCG:  Solving for T, Initial residual = 0.04718885060532042, Final residual = 1.31814547627595e-14, No Iterations 4
ExecutionTime = 3.28 s  ClockTime = 10 s

Time = 0.7

DICPCG:  Solving for T, Initial residual = 0.03951584273890713, Final residual = 9.79289399369161e-15, No Iterations 4
ExecutionTime = 3.28 s  ClockTime = 10 s

Time = 0.8

DICPCG:  Solving for T, Initial residual = 0.03400308631191482, Final residual = 7.645332771274386e-15, No Iterations 4
ExecutionTime = 3.28 s  ClockTime = 10 s

Time = 0.9

DICPCG:  Solving for T, Initial residual = 0.02985615900662448, Final residual = 6.186679893078163e-15, No Iterations 4
ExecutionTime = 3.28 s  ClockTime = 10 s

Time = 1

DICPCG:  Solving for T, Initial residual = 0.02667708873162277, Final residual = 5.153215489579602e-15, No Iterations 4
ExecutionTime = 3.29 s  ClockTime = 10 s

Direct computation ENDED

Field size = 10.
Sampling ONLY the last timestep



Sampling done 


--------------------------------------

Base 4 of 15

--------------------------------------


SIMPLE: convergence criteria
    field T	 tolerance 1e-12

Ready for new computation
Setting endTime to offlineEndTime

SIMPLE: convergence criteria
    field T	 tolerance 1e-12

Ready for new computation
Ready for new offline computation
Time = 0.1

DICPCG:  Solving for T, Initial residual = 1, Final residual = 5.471506472519987e-13, No Iterations 4
ExecutionTime = 3.4 s  ClockTime = 10 s

Time = 0.2

DICPCG:  Solving for T, Initial residual = 0.2036896501170791, Final residual = 9.884013270921567e-14, No Iterations 4
ExecutionTime = 3.4 s  ClockTime = 10 s

Time = 0.3

DICPCG:  Solving for T, Initial residual = 0.1130637609422599, Final residual = 4.852102748179054e-14, No Iterations 4
ExecutionTime = 3.4 s  ClockTime = 10 s

Time = 0.4

DICPCG:  Solving for T, Initial residual = 0.07750727339542793, Final residual = 2.893513458905147e-14, No Iterations 4
ExecutionTime = 3.41 s  ClockTime = 10 s

Time = 0.5

DICPCG:  Solving for T, Initial residual = 0.05858965538520226, Final residual = 1.882138097144788e-14, No Iterations 4
ExecutionTime = 3.41 s  ClockTime = 10 s

Time = 0.6

DICPCG:  Solving for T, Initial residual = 0.04718885061473854, Final residual = 1.318145475136866e-14, No Iterations 4
ExecutionTime = 3.41 s  ClockTime = 10 s

Time = 0.7

DICPCG:  Solving for T, Initial residual = 0.03951584274256597, Final residual = 9.792893985091988e-15, No Iterations 4
ExecutionTime = 3.41 s  ClockTime = 10 s

Time = 0.8

DICPCG:  Solving for T, Initial residual = 0.03400308628165914, Final residual = 7.64533276407384e-15, No Iterations 4
ExecutionTime = 3.41 s  ClockTime = 10 s

Time = 0.9

DICPCG:  Solving for T, Initial residual = 0.02985615894628944, Final residual = 6.186679886504545e-15, No Iterations 4
ExecutionTime = 3.42 s  ClockTime = 10 s

Time = 1

DICPCG:  Solving for T, Initial residual = 0.02667708867528403, Final residual = 5.153215484137171e-15, No Iterations 4
ExecutionTime = 3.42 s  ClockTime = 10 s

Direct computation ENDED

Field size = 10.
Sampling ONLY the last timestep



Sampling done 


--------------------------------------

Base 5 of 15

--------------------------------------


SIMPLE: convergence criteria
    field T	 tolerance 1e-12

Ready for new computation
Setting endTime to offlineEndTime

SIMPLE: convergence criteria
    field T	 tolerance 1e-12

Ready for new computation
Ready for new offline computation
Time = 0.1

DICPCG:  Solving for T, Initial residual = 1, Final residual = 5.471506452203916e-13, No Iterations 4
ExecutionTime = 3.55 s  ClockTime = 10 s

Time = 0.2

DICPCG:  Solving for T, Initial residual = 0.2036896504354231, Final residual = 9.884013246181207e-14, No Iterations 4
ExecutionTime = 3.55 s  ClockTime = 10 s

Time = 0.3

DICPCG:  Solving for T, Initial residual = 0.1130637611488493, Final residual = 4.852102736150498e-14, No Iterations 4
ExecutionTime = 3.55 s  ClockTime = 10 s

Time = 0.4

DICPCG:  Solving for T, Initial residual = 0.07750727352727108, Final residual = 2.893513451605187e-14, No Iterations 4
ExecutionTime = 3.55 s  ClockTime = 10 s

Time = 0.5

DICPCG:  Solving for T, Initial residual = 0.05858965548415435, Final residual = 1.882138092268593e-14, No Iterations 4
ExecutionTime = 3.56 s  ClockTime = 10 s

Time = 0.6

DICPCG:  Solving for T, Initial residual = 0.04718885063649891, Final residual = 1.318145471526516e-14, No Iterations 4
ExecutionTime = 3.56 s  ClockTime = 10 s

Time = 0.7

DICPCG:  Solving for T, Initial residual = 0.0395158427471066, Final residual = 9.792893957830722e-15, No Iterations 4
ExecutionTime = 3.56 s  ClockTime = 10 s

Time = 0.8

DICPCG:  Solving for T, Initial residual = 0.03400308621175498, Final residual = 7.645332741144327e-15, No Iterations 4
ExecutionTime = 3.56 s  ClockTime = 10 s

Time = 0.9

DICPCG:  Solving for T, Initial residual = 0.0298561588068879, Final residual = 6.186679867348288e-15, No Iterations 4
ExecutionTime = 3.57 s  ClockTime = 10 s

Time = 1

DICPCG:  Solving for T, Initial residual = 0.02667708854511665, Final residual = 5.153215468511147e-15, No Iterations 4
ExecutionTime = 3.57 s  ClockTime = 10 s

Direct computation ENDED

Field size = 10.
Sampling ONLY the last timestep



Sampling done 


--------------------------------------

Base 6 of 15

--------------------------------------


SIMPLE: convergence criteria
    field T	 tolerance 1e-12

Ready for new computation
Setting endTime to offlineEndTime

SIMPLE: convergence criteria
    field T	 tolerance 1e-12

Ready for new computation
Ready for new offline computation
Time = 0.1

DICPCG:  Solving for T, Initial residual = 1, Final residual = 5.471506447844381e-13, No Iterations 4
ExecutionTime = 3.69 s  ClockTime = 11 s

Time = 0.2

DICPCG:  Solving for T, Initial residual = 0.2036896504304423, Final residual = 9.88401323775105e-14, No Iterations 4
ExecutionTime = 3.69 s  ClockTime = 11 s

Time = 0.3

DICPCG:  Solving for T, Initial residual = 0.1130637611456127, Final residual = 4.852102731946613e-14, No Iterations 4
ExecutionTime = 3.69 s  ClockTime = 11 s

Time = 0.4

DICPCG:  Solving for T, Initial residual = 0.07750727352520584, Final residual = 2.893513449050136e-14, No Iterations 4
ExecutionTime = 3.69 s  ClockTime = 11 s

Time = 0.5

DICPCG:  Solving for T, Initial residual = 0.05858965548260501, Final residual = 1.882138090593869e-14, No Iterations 4
ExecutionTime = 3.7 s  ClockTime = 11 s

Time = 0.6

DICPCG:  Solving for T, Initial residual = 0.04718885063615832, Final residual = 1.318145470392509e-14, No Iterations 4
ExecutionTime = 3.7 s  ClockTime = 11 s

Time = 0.7

DICPCG:  Solving for T, Initial residual = 0.03951584276859473, Final residual = 9.792893949339845e-15, No Iterations 4
ExecutionTime = 3.7 s  ClockTime = 11 s

Time = 0.8

DICPCG:  Solving for T, Initial residual = 0.03400308621284945, Final residual = 7.645332733955492e-15, No Iterations 4
ExecutionTime = 3.71 s  ClockTime = 11 s

Time = 0.9

DICPCG:  Solving for T, Initial residual = 0.02985615880907097, Final residual = 6.186679863552881e-15, No Iterations 4
ExecutionTime = 3.71 s  ClockTime = 11 s

Time = 1

DICPCG:  Solving for T, Initial residual = 0.02667708854715608, Final residual = 5.153215465826276e-15, No Iterations 4
ExecutionTime = 3.71 s  ClockTime = 11 s

Direct computation ENDED

Field size = 10.
Sampling ONLY the last timestep



Sampling done 


--------------------------------------

Base 7 of 15

--------------------------------------


SIMPLE: convergence criteria
    field T	 tolerance 1e-12

Ready for new computation
Setting endTime to offlineEndTime

SIMPLE: convergence criteria
    field T	 tolerance 1e-12

Ready for new computation
Ready for new offline computation
Time = 0.1

DICPCG:  Solving for T, Initial residual = 1, Final residual = 5.471506487543462e-13, No Iterations 4
ExecutionTime = 3.84 s  ClockTime = 11 s

Time = 0.2

DICPCG:  Solving for T, Initial residual = 0.2036896498808073, Final residual = 9.884013288984719e-14, No Iterations 4
ExecutionTime = 3.84 s  ClockTime = 11 s

Time = 0.3

DICPCG:  Solving for T, Initial residual = 0.1130637607889371, Final residual = 4.852102757044089e-14, No Iterations 4
ExecutionTime = 3.84 s  ClockTime = 11 s

Time = 0.4

DICPCG:  Solving for T, Initial residual = 0.07750727329757859, Final residual = 2.893513464335739e-14, No Iterations 4
ExecutionTime = 3.84 s  ClockTime = 11 s

Time = 0.5

DICPCG:  Solving for T, Initial residual = 0.0585896553117632, Final residual = 1.882138100773489e-14, No Iterations 4
ExecutionTime = 3.84 s  ClockTime = 11 s

Time = 0.6

DICPCG:  Solving for T, Initial residual = 0.04718885059858918, Final residual = 1.318145477860516e-14, No Iterations 4
ExecutionTime = 3.84 s  ClockTime = 11 s

Time = 0.7

DICPCG:  Solving for T, Initial residual = 0.03951584276610456, Final residual = 9.792894005814851e-15, No Iterations 4
ExecutionTime = 3.85 s  ClockTime = 11 s

Time = 0.8

DICPCG:  Solving for T, Initial residual = 0.03400308633353938, Final residual = 7.645332781631735e-15, No Iterations 4
ExecutionTime = 3.85 s  ClockTime = 11 s

Time = 0.9

DICPCG:  Solving for T, Initial residual = 0.02985615904974915, Final residual = 6.186679901733173e-15, No Iterations 4
ExecutionTime = 3.85 s  ClockTime = 11 s

Time = 1

DICPCG:  Solving for T, Initial residual = 0.02667708877189124, Final residual = 5.153215496752318e-15, No Iterations 4
ExecutionTime = 3.85 s  ClockTime = 11 s

Direct computation ENDED

Field size = 10.
Sampling ONLY the last timestep



Sampling done 


--------------------------------------

Base 8 of 15

--------------------------------------


SIMPLE: convergence criteria
    field T	 tolerance 1e-12

Ready for new computation
Setting endTime to offlineEndTime

SIMPLE: convergence criteria
    field T	 tolerance 1e-12

Ready for new computation
Ready for new offline computation
Time = 0.1

DICPCG:  Solving for T, Initial residual = 1, Final residual = 5.471506498563691e-13, No Iterations 4
ExecutionTime = 3.97 s  ClockTime = 12 s

Time = 0.2

DICPCG:  Solving for T, Initial residual = 0.2036896497413333, Final residual = 9.884013303783774e-14, No Iterations 4
ExecutionTime = 3.97 s  ClockTime = 12 s

Time = 0.3

DICPCG:  Solving for T, Initial residual = 0.1130637606984225, Final residual = 4.852102764306112e-14, No Iterations 4
ExecutionTime = 3.97 s  ClockTime = 12 s

Time = 0.4

DICPCG:  Solving for T, Initial residual = 0.07750727323981108, Final residual = 2.893513468745573e-14, No Iterations 4
ExecutionTime = 3.97 s  ClockTime = 12 s

Time = 0.5

DICPCG:  Solving for T, Initial residual = 0.05858965526840831, Final residual = 1.882138103723364e-14, No Iterations 4
ExecutionTime = 3.98 s  ClockTime = 12 s

Time = 0.6

DICPCG:  Solving for T, Initial residual = 0.04718885058905489, Final residual = 1.318145480010477e-14, No Iterations 4
ExecutionTime = 3.98 s  ClockTime = 12 s

Time = 0.7

DICPCG:  Solving for T, Initial residual = 0.03951584276239819, Final residual = 9.792894022086732e-15, No Iterations 4
ExecutionTime = 3.98 s  ClockTime = 12 s

Time = 0.8

DICPCG:  Solving for T, Initial residual = 0.03400308636416683, Final residual = 7.645332795399968e-15, No Iterations 4
ExecutionTime = 3.98 s  ClockTime = 12 s

Time = 0.9

DICPCG:  Solving for T, Initial residual = 0.02985615911082572, Final residual = 6.186679912467571e-15, No Iterations 4
ExecutionTime = 3.99 s  ClockTime = 12 s

Time = 1

DICPCG:  Solving for T, Initial residual = 0.02667708882892085, Final residual = 5.153215505425258e-15, No Iterations 4
ExecutionTime = 3.99 s  ClockTime = 12 s

Direct computation ENDED

Field size = 10.
Sampling ONLY the last timestep



Sampling done 


--------------------------------------

Base 9 of 15

--------------------------------------


SIMPLE: convergence criteria
    field T	 tolerance 1e-12

Ready for new computation
Setting endTime to offlineEndTime

SIMPLE: convergence criteria
    field T	 tolerance 1e-12

Ready for new computation
Ready for new offline computation
Time = 0.1

DICPCG:  Solving for T, Initial residual = 1, Final residual = 5.471506491251941e-13, No Iterations 4
ExecutionTime = 4.11 s  ClockTime = 12 s

Time = 0.2

DICPCG:  Solving for T, Initial residual = 0.2036896498808077, Final residual = 9.884013295935187e-14, No Iterations 4
ExecutionTime = 4.12 s  ClockTime = 12 s

Time = 0.3

DICPCG:  Solving for T, Initial residual = 0.113063760788937, Final residual = 4.852102760516584e-14, No Iterations 4
ExecutionTime = 4.12 s  ClockTime = 12 s

Time = 0.4

DICPCG:  Solving for T, Initial residual = 0.07750727329757877, Final residual = 2.893513466450795e-14, No Iterations 4
ExecutionTime = 4.12 s  ClockTime = 12 s

Time = 0.5

DICPCG:  Solving for T, Initial residual = 0.05858965531176306, Final residual = 1.882138102188988e-14, No Iterations 4
ExecutionTime = 4.12 s  ClockTime = 12 s

Time = 0.6

DICPCG:  Solving for T, Initial residual = 0.04718885059858924, Final residual = 1.318145478848493e-14, No Iterations 4
ExecutionTime = 4.13 s  ClockTime = 12 s

Time = 0.7

DICPCG:  Solving for T, Initial residual = 0.03951584276610456, Final residual = 9.792894013348168e-15, No Iterations 4
ExecutionTime = 4.13 s  ClockTime = 12 s

Time = 0.8

DICPCG:  Solving for T, Initial residual = 0.0340030863335395, Final residual = 7.645332788053071e-15, No Iterations 4
ExecutionTime = 4.13 s  ClockTime = 12 s

Time = 0.9

DICPCG:  Solving for T, Initial residual = 0.02985615904974906, Final residual = 6.18667990581754e-15, No Iterations 4
ExecutionTime = 4.13 s  ClockTime = 12 s

Time = 1

DICPCG:  Solving for T, Initial residual = 0.02667708877189126, Final residual = 5.15321549991036e-15, No Iterations 4
ExecutionTime = 4.13 s  ClockTime = 12 s

Direct computation ENDED

Field size = 10.
Sampling ONLY the last timestep



Sampling done 


--------------------------------------

Base 10 of 15

--------------------------------------


SIMPLE: convergence criteria
    field T	 tolerance 1e-12

Ready for new computation
Setting endTime to offlineEndTime

SIMPLE: convergence criteria
    field T	 tolerance 1e-12

Ready for new computation
Ready for new offline computation
Time = 0.1

DICPCG:  Solving for T, Initial residual = 1, Final residual = 5.471506470611752e-13, No Iterations 4
ExecutionTime = 4.25 s  ClockTime = 13 s

Time = 0.2

DICPCG:  Solving for T, Initial residual = 0.2036896502030195, Final residual = 9.884013270845423e-14, No Iterations 4
ExecutionTime = 4.25 s  ClockTime = 13 s

Time = 0.3

DICPCG:  Solving for T, Initial residual = 0.1130637609980301, Final residual = 4.852102748261223e-14, No Iterations 4
ExecutionTime = 4.25 s  ClockTime = 13 s

Time = 0.4

DICPCG:  Solving for T, Initial residual = 0.07750727343102196, Final residual = 2.893513459026004e-14, No Iterations 4
ExecutionTime = 4.25 s  ClockTime = 13 s

Time = 0.5

DICPCG:  Solving for T, Initial residual = 0.05858965541191614, Final residual = 1.882138097236459e-14, No Iterations 4
ExecutionTime = 4.25 s  ClockTime = 13 s

Time = 0.6

DICPCG:  Solving for T, Initial residual = 0.04718885062061358, Final residual = 1.318145475177191e-14, No Iterations 4
ExecutionTime = 4.26 s  ClockTime = 13 s

Time = 0.7

DICPCG:  Solving for T, Initial residual = 0.03951584276975454, Final residual = 9.792893985588254e-15, No Iterations 4
ExecutionTime = 4.26 s  ClockTime = 13 s

Time = 0.8

DICPCG:  Solving for T, Initial residual = 0.03400308626278716, Final residual = 7.645332764707878e-15, No Iterations 4
ExecutionTime = 4.26 s  ClockTime = 13 s

Time = 0.9

DICPCG:  Solving for T, Initial residual = 0.02985615890865511, Final residual = 6.18667988635021e-15, No Iterations 4
ExecutionTime = 4.26 s  ClockTime = 13 s

Time = 1

DICPCG:  Solving for T, Initial residual = 0.02667708864014364, Final residual = 5.153215484032801e-15, No Iterations 4
ExecutionTime = 4.27 s  ClockTime = 13 s

Direct computation ENDED

Field size = 10.
Sampling ONLY the last timestep



Sampling done 


--------------------------------------

Base 11 of 15

--------------------------------------


SIMPLE: convergence criteria
    field T	 tolerance 1e-12

Ready for new computation
Setting endTime to offlineEndTime

SIMPLE: convergence criteria
    field T	 tolerance 1e-12

Ready for new computation
Ready for new offline computation
Time = 0.1

DICPCG:  Solving for T, Initial residual = 1, Final residual = 5.471506446483545e-13, No Iterations 4
ExecutionTime = 4.39 s  ClockTime = 13 s

Time = 0.2

DICPCG:  Solving for T, Initial residual = 0.2036896504881597, Final residual = 9.884013237584777e-14, No Iterations 4
ExecutionTime = 4.39 s  ClockTime = 13 s

Time = 0.3

DICPCG:  Solving for T, Initial residual = 0.1130637611830709, Final residual = 4.852102731963815e-14, No Iterations 4
ExecutionTime = 4.39 s  ClockTime = 13 s

Time = 0.4

DICPCG:  Solving for T, Initial residual = 0.07750727354911117, Final residual = 2.893513449093636e-14, No Iterations 4
ExecutionTime = 4.39 s  ClockTime = 13 s

Time = 0.5

DICPCG:  Solving for T, Initial residual = 0.05858965550054708, Final residual = 1.882138090648486e-14, No Iterations 4
ExecutionTime = 4.39 s  ClockTime = 13 s

Time = 0.6

DICPCG:  Solving for T, Initial residual = 0.0471888506401042, Final residual = 1.318145470427352e-14, No Iterations 4
ExecutionTime = 4.4 s  ClockTime = 13 s

Time = 0.7

DICPCG:  Solving for T, Initial residual = 0.03951584276270201, Final residual = 9.792893949779327e-15, No Iterations 4
ExecutionTime = 4.4 s  ClockTime = 13 s

Time = 0.8

DICPCG:  Solving for T, Initial residual = 0.034003086200175, Final residual = 7.645332734480602e-15, No Iterations 4
ExecutionTime = 4.4 s  ClockTime = 13 s

Time = 0.9

DICPCG:  Solving for T, Initial residual = 0.02985615878379579, Final residual = 6.186679863712258e-15, No Iterations 4
ExecutionTime = 4.41 s  ClockTime = 13 s

Time = 1

DICPCG:  Solving for T, Initial residual = 0.02667708852355439, Final residual = 5.15321546603531e-15, No Iterations 4
ExecutionTime = 4.41 s  ClockTime = 13 s

Direct computation ENDED

Field size = 10.
Sampling ONLY the last timestep



Sampling done 


--------------------------------------

Base 12 of 15

--------------------------------------


SIMPLE: convergence criteria
    field T	 tolerance 1e-12

Ready for new computation
Setting endTime to offlineEndTime

SIMPLE: convergence criteria
    field T	 tolerance 1e-12

Ready for new computation
Ready for new offline computation
Time = 0.1

DICPCG:  Solving for T, Initial residual = 1, Final residual = 5.471506486148353e-13, No Iterations 4
ExecutionTime = 4.52 s  ClockTime = 14 s

Time = 0.2

DICPCG:  Solving for T, Initial residual = 0.2036896499401886, Final residual = 9.884013288815295e-14, No Iterations 4
ExecutionTime = 4.52 s  ClockTime = 14 s

Time = 0.3

DICPCG:  Solving for T, Initial residual = 0.1130637608274667, Final residual = 4.852102757077538e-14, No Iterations 4
ExecutionTime = 4.52 s  ClockTime = 14 s

Time = 0.4

DICPCG:  Solving for T, Initial residual = 0.07750727332216795, Final residual = 2.893513464364922e-14, No Iterations 4
ExecutionTime = 4.52 s  ClockTime = 14 s

Time = 0.5

DICPCG:  Solving for T, Initial residual = 0.05858965533021981, Final residual = 1.882138100824924e-14, No Iterations 4
ExecutionTime = 4.53 s  ClockTime = 14 s

Time = 0.6

DICPCG:  Solving for T, Initial residual = 0.0471888506026477, Final residual = 1.318145477895543e-14, No Iterations 4
ExecutionTime = 4.53 s  ClockTime = 14 s

Time = 0.7

DICPCG:  Solving for T, Initial residual = 0.03951584275946401, Final residual = 9.792894006249151e-15, No Iterations 4
ExecutionTime = 4.53 s  ClockTime = 14 s

Time = 0.8

DICPCG:  Solving for T, Initial residual = 0.03400308632050064, Final residual = 7.645332782143722e-15, No Iterations 4
ExecutionTime = 4.53 s  ClockTime = 14 s

Time = 0.9

DICPCG:  Solving for T, Initial residual = 0.0298561590237472, Final residual = 6.186679901912971e-15, No Iterations 4
ExecutionTime = 4.53 s  ClockTime = 14 s

Time = 1

DICPCG:  Solving for T, Initial residual = 0.02667708874761133, Final residual = 5.153215496997145e-15, No Iterations 4
ExecutionTime = 4.54 s  ClockTime = 14 s

Direct computation ENDED

Field size = 10.
Sampling ONLY the last timestep



Sampling done 


--------------------------------------

Base 13 of 15

--------------------------------------


SIMPLE: convergence criteria
    field T	 tolerance 1e-12

Ready for new computation
Setting endTime to offlineEndTime

SIMPLE: convergence criteria
    field T	 tolerance 1e-12

Ready for new computation
Ready for new offline computation
Time = 0.1

DICPCG:  Solving for T, Initial residual = 1, Final residual = 5.471506497154519e-13, No Iterations 4
ExecutionTime = 4.66 s  ClockTime = 14 s

Time = 0.2

DICPCG:  Solving for T, Initial residual = 0.2036896498011414, Final residual = 9.884013303589401e-14, No Iterations 4
ExecutionTime = 4.66 s  ClockTime = 14 s

Time = 0.3

DICPCG:  Solving for T, Initial residual = 0.1130637607372345, Final residual = 4.85210276430369e-14, No Iterations 4
ExecutionTime = 4.66 s  ClockTime = 14 s

Time = 0.4

DICPCG:  Solving for T, Initial residual = 0.07750727326458223, Final residual = 2.893513468787547e-14, No Iterations 4
ExecutionTime = 4.66 s  ClockTime = 14 s

Time = 0.5

DICPCG:  Solving for T, Initial residual = 0.05858965528699889, Final residual = 1.88213810377261e-14, No Iterations 4
ExecutionTime = 4.66 s  ClockTime = 14 s

Time = 0.6

DICPCG:  Solving for T, Initial residual = 0.04718885059314253, Final residual = 1.318145480043126e-14, No Iterations 4
ExecutionTime = 4.67 s  ClockTime = 14 s

Time = 0.7

DICPCG:  Solving for T, Initial residual = 0.03951584275576892, Final residual = 9.792894022531641e-15, No Iterations 4
ExecutionTime = 4.67 s  ClockTime = 14 s

Time = 0.8

DICPCG:  Solving for T, Initial residual = 0.03400308635103364, Final residual = 7.645332795874135e-15, No Iterations 4
ExecutionTime = 4.67 s  ClockTime = 14 s

Time = 0.9

DICPCG:  Solving for T, Initial residual = 0.02985615908463608, Final residual = 6.18667991266172e-15, No Iterations 4
ExecutionTime = 4.67 s  ClockTime = 14 s

Time = 1

DICPCG:  Solving for T, Initial residual = 0.02667708880446664, Final residual = 5.153215505675516e-15, No Iterations 4
ExecutionTime = 4.68 s  ClockTime = 14 s

Direct computation ENDED

Field size = 10.
Sampling ONLY the last timestep



Sampling done 


--------------------------------------

Base 14 of 15

--------------------------------------


SIMPLE: convergence criteria
    field T	 tolerance 1e-12

Ready for new computation
Setting endTime to offlineEndTime

SIMPLE: convergence criteria
    field T	 tolerance 1e-12

Ready for new computation
Ready for new offline computation
Time = 0.1

DICPCG:  Solving for T, Initial residual = 1, Final residual = 5.471506489810338e-13, No Iterations 4
ExecutionTime = 4.8 s  ClockTime = 14 s

Time = 0.2

DICPCG:  Solving for T, Initial residual = 0.2036896499401893, Final residual = 9.884013295739127e-14, No Iterations 4
ExecutionTime = 4.8 s  ClockTime = 14 s

Time = 0.3

DICPCG:  Solving for T, Initial residual = 0.1130637608274666, Final residual = 4.852102760499629e-14, No Iterations 4
ExecutionTime = 4.81 s  ClockTime = 14 s

Time = 0.4

DICPCG:  Solving for T, Initial residual = 0.07750727332216795, Final residual = 2.893513466480394e-14, No Iterations 4
ExecutionTime = 4.81 s  ClockTime = 14 s

Time = 0.5

DICPCG:  Solving for T, Initial residual = 0.05858965533021988, Final residual = 1.882138102228831e-14, No Iterations 4
ExecutionTime = 4.81 s  ClockTime = 14 s

Time = 0.6

DICPCG:  Solving for T, Initial residual = 0.04718885060264776, Final residual = 1.318145478878893e-14, No Iterations 4
ExecutionTime = 4.81 s  ClockTime = 14 s

Time = 0.7

DICPCG:  Solving for T, Initial residual = 0.03951584275946404, Final residual = 9.79289401375361e-15, No Iterations 4
ExecutionTime = 4.81 s  ClockTime = 14 s

Time = 0.8

DICPCG:  Solving for T, Initial residual = 0.03400308632050072, Final residual = 7.645332788576958e-15, No Iterations 4
ExecutionTime = 4.81 s  ClockTime = 14 s

Time = 0.9

DICPCG:  Solving for T, Initial residual = 0.02985615902374712, Final residual = 6.186679906033264e-15, No Iterations 4
ExecutionTime = 4.82 s  ClockTime = 14 s

Time = 1

DICPCG:  Solving for T, Initial residual = 0.02667708874761129, Final residual = 5.153215500175988e-15, No Iterations 4
ExecutionTime = 4.82 s  ClockTime = 14 s

Direct computation ENDED

Field size = 10.
Sampling ONLY the last timestep



Sampling done 


--------------------------------------

Base 15 of 15

--------------------------------------


SIMPLE: convergence criteria
    field T	 tolerance 1e-12

Ready for new computation
Setting endTime to offlineEndTime

SIMPLE: convergence criteria
    field T	 tolerance 1e-12

Ready for new computation
Ready for new offline computation
Time = 0.1

DICPCG:  Solving for T, Initial residual = 1, Final residual = 5.471506469243286e-13, No Iterations 4
ExecutionTime = 4.94 s  ClockTime = 15 s

Time = 0.2

DICPCG:  Solving for T, Initial residual = 0.2036896502614247, Final residual = 9.884013270623874e-14, No Iterations 4
ExecutionTime = 4.94 s  ClockTime = 15 s

Time = 0.3

DICPCG:  Solving for T, Initial residual = 0.1130637610359303, Final residual = 4.852102748260315e-14, No Iterations 4
ExecutionTime = 4.94 s  ClockTime = 15 s

Time = 0.4

DICPCG:  Solving for T, Initial residual = 0.07750727345520927, Final residual = 2.893513459043875e-14, No Iterations 4
ExecutionTime = 4.94 s  ClockTime = 15 s

Time = 0.5

DICPCG:  Solving for T, Initial residual = 0.05858965543006976, Final residual = 1.882138097273023e-14, No Iterations 4
ExecutionTime = 4.94 s  ClockTime = 15 s

Time = 0.6

DICPCG:  Solving for T, Initial residual = 0.04718885062460559, Final residual = 1.318145475209045e-14, No Iterations 4
ExecutionTime = 4.95 s  ClockTime = 15 s

Time = 0.7

DICPCG:  Solving for T, Initial residual = 0.03951584276331427, Final residual = 9.79289398600756e-15, No Iterations 4
ExecutionTime = 4.95 s  ClockTime = 15 s

Time = 0.8

DICPCG:  Solving for T, Initial residual = 0.03400308624996311, Final residual = 7.645332765220396e-15, No Iterations 4
ExecutionTime = 4.95 s  ClockTime = 15 s

Time = 0.9

DICPCG:  Solving for T, Initial residual = 0.02985615888308217, Final residual = 6.186679886578693e-15, No Iterations 4
ExecutionTime = 4.95 s  ClockTime = 15 s

Time = 1

DICPCG:  Solving for T, Initial residual = 0.02667708861626428, Final residual = 5.153215484295407e-15, No Iterations 4
ExecutionTime = 4.96 s  ClockTime = 15 s

Direct computation ENDED

Field size = 10.
Sampling ONLY the last timestep



Sampling done 

singularValues = 
Condition number = 1.008766365311946e+16

Offline ENDED

Using quasilinearity of direct problem
debug: addSol -0.0003974828358246058
-0.0003974828358245987
-0.0003974828358245991
-0.0003974828358245986
 -0.000397482835824599
-0.0003974828357283082
-0.0003974828357283006
-0.0003974828357283008
-0.0003974828357283008
-0.0003974828357283013
-0.0003974828357283087
-0.0003974828357283008
   -0.0003974828357283
-0.0003974828357283006
-0.0003974828357283009
debug: T0_vector 

Time sample 1
Solving T0 problem
Setting endTime to offlineEndTime

SIMPLE: convergence criteria
    field T	 tolerance 1e-12

Ready for new computation
Ready for new offline computation
debug : First timestep. initialField = 718.994401128777
debug : T0 at thermocouples = 624.1283673027996
605.4702940562217
 598.909638007525
605.4702940567524
624.1283673034889
656.7042369289304
638.0461636822959
631.4855076336783
638.0461636828722
656.7042369298551
689.7070771586227
671.0490039125682
 664.488347863894
671.0490039131289
689.7070771595114
Time = 0.1

DICPCG:  Solving for T, Initial residual = 0.01839603303951816, Final residual = 1.11556738377265e-14, No Iterations 4
ExecutionTime = 5.09 s  ClockTime = 15 s

Time = 0.2

DICPCG:  Solving for T, Initial residual = 0.01553034394829789, Final residual = 8.369391415008789e-15, No Iterations 4
ExecutionTime = 5.1 s  ClockTime = 15 s

Time = 0.3

DICPCG:  Solving for T, Initial residual = 0.01360296939499481, Final residual = 6.530945227814766e-15, No Iterations 4
ExecutionTime = 5.11 s  ClockTime = 15 s

Time = 0.4

DICPCG:  Solving for T, Initial residual = 0.01222381293039129, Final residual = 5.148685646644208e-15, No Iterations 4
ExecutionTime = 5.13 s  ClockTime = 15 s

Time = 0.5

DICPCG:  Solving for T, Initial residual = 0.01118530757482995, Final residual = 4.116589893836076e-15, No Iterations 4
ExecutionTime = 5.14 s  ClockTime = 16 s

Time = 0.6

DICPCG:  Solving for T, Initial residual = 0.01037059651223284, Final residual = 3.377687233684916e-15, No Iterations 4
ExecutionTime = 5.15 s  ClockTime = 16 s

Time = 0.7

DICPCG:  Solving for T, Initial residual = 0.009710940192158009, Final residual = 2.859044860631963e-15, No Iterations 4
ExecutionTime = 5.16 s  ClockTime = 16 s

Time = 0.8

DICPCG:  Solving for T, Initial residual = 0.009162861162951202, Final residual = 2.48692956907527e-15, No Iterations 4
ExecutionTime = 5.17 s  ClockTime = 16 s

Time = 0.9

DICPCG:  Solving for T, Initial residual = 0.008698306172861959, Final residual = 2.191917655440105e-15, No Iterations 4
ExecutionTime = 5.19 s  ClockTime = 16 s

Time = 1

DICPCG:  Solving for T, Initial residual = 0.008298122293316055, Final residual = 1.951562244166881e-15, No Iterations 4
ExecutionTime = 5.2 s  ClockTime = 16 s


Field size = 10.
Sampling ONLY the last timestep



Sampling done 

SolveT0 ENDED

Weights = 

15
(
-16783339.47567459
-22906490.12118255
35189146.58661672
-14777572.40146017
-18955225.62725766
34915644.78393032
0
-3160152.943234137
-5425474.648470709
41381105.78436027
33202831.22848321
-219203534.0495576
289753149.6648725
-196584359.8003621
61915066.2730568
)

Reconstructing field T

Exporting solution in the time domain (0, 1]


SIMPLE: convergence criteria
    field T	 tolerance 1e-12

Ready for new computation

Field size = 10.
Sampling ONLY the last timestep



Sampling done 

Tcomp = 
624.2048479286096 605.5423944763152 598.9801026357011 605.5423929547793 624.2048488062964 656.7885748798944 638.1259952800226  631.563932122971 638.1259984801079 656.7885729913014 689.7992143185888 671.1367556900915 664.5744737803084 671.1367539127443 689.7992153839119
TmeasShort = 
624.2048583683355 605.5423602970086 598.9801495801322 605.5423602975217 624.2048583689997 656.7885556936986 638.1260576223201 631.5638469055178 638.1260576228757 656.7885556945919 689.7992236231257 671.1367255523162 664.5745148354652 671.1367255528547 689.7992236239837
J = 7.665708025390589e-05

Time sample 2
Solving T0 problem
Setting endTime to offlineEndTime

SIMPLE: convergence criteria
    field T	 tolerance 1e-12

Ready for new computation
Ready for new offline computation
Reconstructing field T

Exporting solution in the time domain (1, 2]


SIMPLE: convergence criteria
    field T	 tolerance 1e-12

Ready for new computation
debug : T0 at thermocouples = 624.2048479286096
605.5423944763152
598.9801026357011
605.5423929547793
624.2048488062964
656.7885748798944
638.1259952800226
 631.563932122971
638.1259984801079
656.7885729913014
689.7992143185888
671.1367556900915
664.5744737803084
671.1367539127443
689.7992153839119
Time = 0.1

DICPCG:  Solving for T, Initial residual = 0.0184106761348748, Final residual = 1.115729664135189e-14, No Iterations 4
ExecutionTime = 5.52 s  ClockTime = 17 s

Time = 0.2

DICPCG:  Solving for T, Initial residual = 0.01552695554997103, Final residual = 8.371249417089427e-15, No Iterations 4
ExecutionTime = 5.53 s  ClockTime = 17 s

Time = 0.3

DICPCG:  Solving for T, Initial residual = 0.01359959064610425, Final residual = 6.532192649645787e-15, No Iterations 4
ExecutionTime = 5.55 s  ClockTime = 17 s

Time = 0.4

DICPCG:  Solving for T, Initial residual = 0.0122208627227941, Final residual = 5.149819278202944e-15, No Iterations 4
ExecutionTime = 5.56 s  ClockTime = 17 s

Time = 0.5

DICPCG:  Solving for T, Initial residual = 0.01118268052819906, Final residual = 4.117629553761808e-15, No Iterations 4
ExecutionTime = 5.57 s  ClockTime = 17 s

Time = 0.6

DICPCG:  Solving for T, Initial residual = 0.01036823613010181, Final residual = 3.378836445119473e-15, No Iterations 4
ExecutionTime = 5.59 s  ClockTime = 17 s

Time = 0.7

DICPCG:  Solving for T, Initial residual = 0.009708788849231702, Final residual = 2.860153019695984e-15, No Iterations 4
ExecutionTime = 5.6 s  ClockTime = 17 s

Time = 0.8

DICPCG:  Solving for T, Initial residual = 0.009160880550953187, Final residual = 2.487808846610334e-15, No Iterations 4
ExecutionTime = 5.62 s  ClockTime = 17 s

Time = 0.9

DICPCG:  Solving for T, Initial residual = 0.008696470684468769, Final residual = 2.1926989608446e-15, No Iterations 4
ExecutionTime = 5.63 s  ClockTime = 17 s

Time = 1

DICPCG:  Solving for T, Initial residual = 0.008296412590925419, Final residual = 1.952252029777625e-15, No Iterations 4
ExecutionTime = 5.65 s  ClockTime = 17 s


Field size = 10.
Sampling ONLY the last timestep



Sampling done 

SolveT0 ENDED

Weights = 

15
(
-17770590.74922409
-24973665.52596498
38306593.5400987
-16284622.40602356
-19983895.90693045
37216292.52217455
0
-3474976.400715624
-5683521.077393753
44037723.5048059
35269865.57392689
-233125562.8844987
308222171.242189
-209133841.2447373
65846369.58308019
)

Reconstructing field T

Exporting solution in the time domain (1, 2]


SIMPLE: convergence criteria
    field T	 tolerance 1e-12

Ready for new computation

Field size = 10.
Sampling ONLY the last timestep



Sampling done 

Tcomp = 
624.8859491325842 606.1841548270626 599.6079131557751 606.1841504093696 624.8859515668057 657.5394170955924 638.8373247099787 632.2616211744212 638.8373328839295 657.5394124721987 690.6197167275996 671.9179154707116 665.3416865000219 671.9179114451023 690.6197190589314
TmeasShort = 
624.8859735593704 606.1840754047776 599.6080214153803 606.1840754052772 624.8859735600183 657.5393712568034 638.8374731021652 632.2614191128387 638.8374731027047 657.5393712576741 690.6197395791693 671.9178414250889 665.3417874357211 671.9178414256114 690.6197395800052
J = 0.0001820447010624019

Time sample 3
Solving T0 problem
Setting endTime to offlineEndTime

SIMPLE: convergence criteria
    field T	 tolerance 1e-12

Ready for new computation
Ready for new offline computation
Reconstructing field T

Exporting solution in the time domain (2, 3]


SIMPLE: convergence criteria
    field T	 tolerance 1e-12

Ready for new computation
debug : T0 at thermocouples = 624.8859491325842
606.1841548270626
599.6079131557751
606.1841504093696
624.8859515668057
657.5394170955924
638.8373247099787
632.2616211744212
638.8373328839295
657.5394124721987
690.6197167275996
671.9179154707116
665.3416865000219
671.9179114451023
690.6197190589314
Time = 0.1

DICPCG:  Solving for T, Initial residual = 0.01854963374402378, Final residual = 1.11712972631102e-14, No Iterations 4
ExecutionTime = 5.96 s  ClockTime = 18 s

Time = 0.2

DICPCG:  Solving for T, Initial residual = 0.01552387611943553, Final residual = 8.388762591680662e-15, No Iterations 4
ExecutionTime = 5.97 s  ClockTime = 18 s

Time = 0.3

DICPCG:  Solving for T, Initial residual = 0.01358242970875493, Final residual = 6.544504991055916e-15, No Iterations 4
ExecutionTime = 5.98 s  ClockTime = 18 s

Time = 0.4

DICPCG:  Solving for T, Initial residual = 0.0121977998110232, Final residual = 5.161814866334965e-15, No Iterations 4
ExecutionTime = 6 s  ClockTime = 18 s

Time = 0.5

DICPCG:  Solving for T, Initial residual = 0.01115698943857407, Final residual = 4.128716970484998e-15, No Iterations 4
ExecutionTime = 6.01 s  ClockTime = 18 s

Time = 0.6

DICPCG:  Solving for T, Initial residual = 0.01034226774002314, Final residual = 3.391348972138286e-15, No Iterations 4
ExecutionTime = 6.02 s  ClockTime = 18 s

Time = 0.7

DICPCG:  Solving for T, Initial residual = 0.009685026438242272, Final residual = 2.871665527744939e-15, No Iterations 4
ExecutionTime = 6.04 s  ClockTime = 18 s

Time = 0.8

DICPCG:  Solving for T, Initial residual = 0.009139001203033011, Final residual = 2.496877489614106e-15, No Iterations 4
ExecutionTime = 6.05 s  ClockTime = 18 s

Time = 0.9

DICPCG:  Solving for T, Initial residual = 0.008676190980994914, Final residual = 2.200726659274031e-15, No Iterations 4
ExecutionTime = 6.07 s  ClockTime = 18 s

Time = 1

DICPCG:  Solving for T, Initial residual = 0.008277515031084341, Final residual = 1.959299600113461e-15, No Iterations 4
ExecutionTime = 6.08 s  ClockTime = 18 s


Field size = 10.
Sampling ONLY the last timestep



Sampling done 

SolveT0 ENDED

Weights = 

15
(
-19897130.69150062
-27601484.30646497
42413579.76538306
-17952206.14381695
-22391037.7995199
41550291.36660371
0
-3917835.390281243
-6319571.943722215
49147260.76823794
39445164.75963188
-260632453.5941391
344623107.0551007
-233809875.84971
73633235.9515709
)

Reconstructing field T

[...]
ExecutionTime = 8.609999999999999 s  ClockTime = 25 s

Time = 0.5

DICPCG:  Solving for T, Initial residual = 0.01087284758019919, Final residual = 3.912035247513554e-15, No Iterations 4
ExecutionTime = 8.619999999999999 s  ClockTime = 25 s

Time = 0.6

DICPCG:  Solving for T, Initial residual = 0.01006946481781713, Final residual = 3.223806456072609e-15, No Iterations 4
ExecutionTime = 8.630000000000001 s  ClockTime = 25 s

Time = 0.7

DICPCG:  Solving for T, Initial residual = 0.009407126128017838, Final residual = 2.738499691280275e-15, No Iterations 4
ExecutionTime = 8.65 s  ClockTime = 25 s

Time = 0.8

DICPCG:  Solving for T, Initial residual = 0.008853956490513877, Final residual = 2.39208315297541e-15, No Iterations 4
ExecutionTime = 8.66 s  ClockTime = 25 s

Time = 0.9

DICPCG:  Solving for T, Initial residual = 0.008389070819356284, Final residual = 2.116169145977695e-15, No Iterations 4
ExecutionTime = 8.67 s  ClockTime = 25 s

Time = 1

DICPCG:  Solving for T, Initial residual = 0.007987706167334647, Final residual = 1.890011017948323e-15, No Iterations 4
ExecutionTime = 8.68 s  ClockTime = 25 s


Field size = 10.
Sampling ONLY the last timestep



Sampling done 

SolveT0 ENDED

Weights = 

15
(
-8270657.221444735
-11471265.17010694
17749948.21635468
-7444506.45119281
-9310189.861957418
17282039.70229031
0
-1851159.149615125
-2652968.669553027
20444414.4184793
16535273.1597556
-109288497.2615544
144715716.2890431
-97995668.85726386
30855773.73761955
)

Reconstructing field T

Exporting solution in the time domain (8, 9]


SIMPLE: convergence criteria
    field T	 tolerance 1e-12

Ready for new computation

Field size = 10.
Sampling ONLY the last timestep



Sampling done 

Tcomp = 
 633.149408094893 613.9701410586492 607.2254655447264 613.9701200486629 633.1494193965955 666.6482649739212 647.4677855267731 640.7252905692761 647.4678217478769 666.6482450542438 700.5735737285142  681.394294442014 674.6496379715649 681.3942779906687 700.5735829881195
TmeasShort = 
633.1495067529851 613.9698221798476 607.2258972856118 613.9698221802811 633.1495067535784  666.648076889387 647.4683923162742 640.7244674221012 647.4683923167427  666.648076890163 700.5736693456375 681.3939847730094 674.6500598788336 681.3939847734591 700.5736693463805
J = 0.0007425664985557806

Time sample 10
Solving T0 problem
Setting endTime to offlineEndTime

SIMPLE: convergence criteria
    field T	 tolerance 1e-12

Ready for new computation
Ready for new offline computation
Reconstructing field T

Exporting solution in the time domain (9, 10]


SIMPLE: convergence criteria
    field T	 tolerance 1e-12

Ready for new computation
debug : T0 at thermocouples =  633.149408094893
613.9701410586492
607.2254655447264
613.9701200486629
633.1494193965955
666.6482649739212
647.4677855267731
640.7252905692761
647.4678217478769
666.6482450542438
700.5735737285142
 681.394294442014
674.6496379715649
681.3942779906687
700.5735829881195
Time = 0.1

DICPCG:  Solving for T, Initial residual = 0.01816755652230855, Final residual = 1.045226688011981e-14, No Iterations 4
ExecutionTime = 9 s  ClockTime = 26 s

Time = 0.2

DICPCG:  Solving for T, Initial residual = 0.01529723858913273, Final residual = 7.804707148630804e-15, No Iterations 4
ExecutionTime = 9.02 s  ClockTime = 26 s

Time = 0.3

DICPCG:  Solving for T, Initial residual = 0.01338821808355936, Final residual = 6.111379850516526e-15, No Iterations 4
ExecutionTime = 9.029999999999999 s  ClockTime = 26 s

Time = 0.4

DICPCG:  Solving for T, Initial residual = 0.01201570475051228, Final residual = 4.824172782013834e-15, No Iterations 4
ExecutionTime = 9.039999999999999 s  ClockTime = 26 s

Time = 0.5

DICPCG:  Solving for T, Initial residual = 0.01097835776056008, Final residual = 3.863547517002591e-15, No Iterations 4
ExecutionTime = 9.06 s  ClockTime = 27 s

Time = 0.6

DICPCG:  Solving for T, Initial residual = 0.01016627261166538, Final residual = 3.16842205540299e-15, No Iterations 4
ExecutionTime = 9.07 s  ClockTime = 27 s

Time = 0.7

DICPCG:  Solving for T, Initial residual = 0.009507658490658566, Final residual = 2.685263959066592e-15, No Iterations 4
ExecutionTime = 9.09 s  ClockTime = 27 s

Time = 0.8

DICPCG:  Solving for T, Initial residual = 0.008972739414398882, Final residual = 2.338132486531319e-15, No Iterations 4
ExecutionTime = 9.1 s  ClockTime = 27 s

Time = 0.9

DICPCG:  Solving for T, Initial residual = 0.008523740705912499, Final residual = 2.064476246771217e-15, No Iterations 4
ExecutionTime = 9.109999999999999 s  ClockTime = 27 s

Time = 1

DICPCG:  Solving for T, Initial residual = 0.008136956806592033, Final residual = 1.843462374207933e-15, No Iterations 4
ExecutionTime = 9.119999999999999 s  ClockTime = 27 s


Field size = 10.
Sampling ONLY the last timestep



Sampling done 

SolveT0 ENDED

Weights = 

15
(
-12041429.87184132
-16493934.64362212
25487830.78410719
-10665309.36480348
-13576410.41635117
25085122.77361167
0
-2561838.266594775
-3862248.358767171
29690091.3987881
23978902.20941021
-158393681.5538597
209630245.6897978
-142031584.839853
44730980.43288986
)

Reconstructing field T

Exporting solution in the time domain (9, 10]


SIMPLE: convergence criteria
    field T	 tolerance 1e-12

Ready for new computation

Field size = 10.
Sampling ONLY the last timestep



Sampling done 

Tcomp = 
628.1458275415091 609.2560217064477 602.6130342169654 609.2560005326352 628.1458389450033   661.13260519416 642.2415683942697 635.6007952648134 642.2416050293828 661.1325850163502 694.5458527067152 675.6560335023792  669.013067240065 675.6560167888956 694.5458621288432
TmeasShort = 
628.1459277517196 609.2556977063531 602.6134730506784 609.2556977067819 628.1459277523057 661.1324143240947 642.2421842787321 635.5999596231067 642.2421842791927 661.1324143248596 694.5459496334259 675.6557195885383 669.0134949329142 675.6557195889801 694.5459496341582
J = 0.0007537795237510267
End

debug : g.size() = 101
debug : gTrue.size() = 101
debug : Ttrue.size() = 101
debug : timeSteps.size() = 101
######### Reading the Data for Treconstructed #########
  1% [|                                                           ]  2% [|                                                           ]  3% [||                                                          ]  4% [||                                                          ]  5% [|||                                                         ]  6% [||||                                                        ]  7% [||||                                                        ]  8% [|||||                                                       ]  9% [|||||                                                       ] 10% [||||||                                                      ] 11% [||||||                                                      ] 12% [|||||||                                                     ] 13% [||||||||                                                    ] 14% [||||||||                                                    ] 15% [|||||||||                                                   ] 16% [|||||||||                                                   ] 17% [||||||||||                                                  ] 18% [|||||||||||                                                 ] 19% [|||||||||||                                                 ] 20% [||||||||||||                                                ] 21% [||||||||||||                                                ] 22% [|||||||||||||                                               ] 23% [|||||||||||||                                               ] 24% [||||||||||||||                                              ] 25% [|||||||||||||||                                             ] 26% [|||||||||||||||                                             ] 27% [||||||||||||||||                                            ] 28% [||||||||||||||||                                            ] 29% [|||||||||||||||||                                           ] 30% [||||||||||||||||||                                          ] 31% [||||||||||||||||||                                          ] 32% [|||||||||||||||||||                                         ] 33% [|||||||||||||||||||                                         ] 33% [||||||||||||||||||||                                        ] 34% [||||||||||||||||||||                                        ] 35% [|||||||||||||||||||||                                       ] 36% [||||||||||||||||||||||                                      ] 37% [||||||||||||||||||||||                                      ] 38% [|||||||||||||||||||||||                                     ] 39% [|||||||||||||||||||||||                                     ] 40% [||||||||||||||||||||||||                                    ] 41% [|||||||||||||||||||||||||                                   ] 42% [|||||||||||||||||||||||||                                   ] 43% [||||||||||||||||||||||||||                                  ] 44% [||||||||||||||||||||||||||                                  ] 45% [|||||||||||||||||||||||||||                                 ] 46% [|||||||||||||||||||||||||||                                 ] 47% [||||||||||||||||||||||||||||                                ] 48% [|||||||||||||||||||||||||||||                               ] 49% [|||||||||||||||||||||||||||||                               ] 50% [||||||||||||||||||||||||||||||                              ] 51% [||||||||||||||||||||||||||||||                              ] 52% [|||||||||||||||||||||||||||||||                             ] 53% [||||||||||||||||||||||||||||||||                            ] 54% [||||||||||||||||||||||||||||||||                            ] 55% [|||||||||||||||||||||||||||||||||                           ] 56% [|||||||||||||||||||||||||||||||||                           ] 57% [||||||||||||||||||||||||||||||||||                          ] 58% [||||||||||||||||||||||||||||||||||                          ] 59% [|||||||||||||||||||||||||||||||||||                         ] 60% [||||||||||||||||||||||||||||||||||||                        ] 61% [||||||||||||||||||||||||||||||||||||                        ] 62% [|||||||||||||||||||||||||||||||||||||                       ] 63% [|||||||||||||||||||||||||||||||||||||                       ] 64% [||||||||||||||||||||||||||||||||||||||                      ] 65% [|||||||||||||||||||||||||||||||||||||||                     ] 66% [|||||||||||||||||||||||||||||||||||||||                     ] 66% [||||||||||||||||||||||||||||||||||||||||                    ] 67% [||||||||||||||||||||||||||||||||||||||||                    ] 68% [|||||||||||||||||||||||||||||||||||||||||                   ] 69% [|||||||||||||||||||||||||||||||||||||||||                   ] 70% [||||||||||||||||||||||||||||||||||||||||||                  ] 71% [|||||||||||||||||||||||||||||||||||||||||||                 ] 72% [|||||||||||||||||||||||||||||||||||||||||||                 ] 73% [||||||||||||||||||||||||||||||||||||||||||||                ] 74% [||||||||||||||||||||||||||||||||||||||||||||                ] 75% [|||||||||||||||||||||||||||||||||||||||||||||               ] 76% [||||||||||||||||||||||||||||||||||||||||||||||              ] 77% [||||||||||||||||||||||||||||||||||||||||||||||              ] 78% [|||||||||||||||||||||||||||||||||||||||||||||||             ] 79% [|||||||||||||||||||||||||||||||||||||||||||||||             ] 80% [||||||||||||||||||||||||||||||||||||||||||||||||            ] 81% [||||||||||||||||||||||||||||||||||||||||||||||||            ] 82% [|||||||||||||||||||||||||||||||||||||||||||||||||           ] 83% [||||||||||||||||||||||||||||||||||||||||||||||||||          ] 84% [||||||||||||||||||||||||||||||||||||||||||||||||||          ] 85% [|||||||||||||||||||||||||||||||||||||||||||||||||||         ] 86% [|||||||||||||||||||||||||||||||||||||||||||||||||||         ] 87% [||||||||||||||||||||||||||||||||||||||||||||||||||||        ] 88% [|||||||||||||||||||||||||||||||||||||||||||||||||||||       ] 89% [|||||||||||||||||||||||||||||||||||||||||||||||||||||       ] 90% [||||||||||||||||||||||||||||||||||||||||||||||||||||||      ] 91% [||||||||||||||||||||||||||||||||||||||||||||||||||||||      ] 92% [|||||||||||||||||||||||||||||||||||||||||||||||||||||||     ] 93% [|||||||||||||||||||||||||||||||||||||||||||||||||||||||     ] 94% [||||||||||||||||||||||||||||||||||||||||||||||||||||||||    ] 95% [|||||||||||||||||||||||||||||||||||||||||||||||||||||||||   ] 96% [|||||||||||||||||||||||||||||||||||||||||||||||||||||||||   ] 97% [||||||||||||||||||||||||||||||||||||||||||||||||||||||||||  ] 98% [||||||||||||||||||||||||||||||||||||||||||||||||||||||||||  ] 99% [||||||||||||||||||||||||||||||||||||||||||||||||||||||||||| ]100% [||||||||||||||||||||||||||||||||||||||||||||||||||||||||||||]
debug: Trec.size() = 101
######### Postprocessing #########
  0% [                                                            ]  1% [|                                                           ]  2% [|                                                           ]  3% [||                                                          ]  4% [||                                                          ]  5% [|||                                                         ]  6% [||||                                                        ]  7% [||||                                                        ]  8% [|||||                                                       ]  9% [|||||                                                       ] 10% [||||||                                                      ] 11% [|||||||                                                     ] 12% [|||||||                                                     ] 13% [||||||||                                                    ] 14% [||||||||                                                    ] 15% [|||||||||                                                   ] 16% [||||||||||                                                  ] 17% [||||||||||                                                  ] 18% [|||||||||||                                                 ] 19% [|||||||||||                                                 ] 20% [||||||||||||                                                ] 21% [|||||||||||||                                               ] 22% [|||||||||||||                                               ] 23% [||||||||||||||                                              ] 24% [||||||||||||||                                              ] 25% [|||||||||||||||                                             ] 26% [||||||||||||||||                                            ] 27% [||||||||||||||||                                            ] 28% [|||||||||||||||||                                           ] 29% [|||||||||||||||||                                           ] 30% [||||||||||||||||||                                          ] 31% [|||||||||||||||||||                                         ] 32% [|||||||||||||||||||                                         ] 33% [||||||||||||||||||||                                        ] 34% [||||||||||||||||||||                                        ] 35% [|||||||||||||||||||||                                       ] 36% [|||||||||||||||||||||                                       ] 37% [||||||||||||||||||||||                                      ] 38% [|||||||||||||||||||||||                                     ] 39% [|||||||||||||||||||||||                                     ] 40% [||||||||||||||||||||||||                                    ] 41% [||||||||||||||||||||||||                                    ] 42% [|||||||||||||||||||||||||                                   ] 43% [||||||||||||||||||||||||||                                  ] 44% [||||||||||||||||||||||||||                                  ] 45% [|||||||||||||||||||||||||||                                 ] 46% [|||||||||||||||||||||||||||                                 ] 47% [||||||||||||||||||||||||||||                                ] 48% [|||||||||||||||||||||||||||||                               ] 49% [|||||||||||||||||||||||||||||                               ] 50% [||||||||||||||||||||||||||||||                              ] 51% [||||||||||||||||||||||||||||||                              ] 52% [|||||||||||||||||||||||||||||||                             ] 53% [||||||||||||||||||||||||||||||||                            ] 54% [||||||||||||||||||||||||||||||||                            ] 55% [|||||||||||||||||||||||||||||||||                           ] 56% [|||||||||||||||||||||||||||||||||                           ] 57% [||||||||||||||||||||||||||||||||||                          ] 58% [|||||||||||||||||||||||||||||||||||                         ] 59% [|||||||||||||||||||||||||||||||||||                         ] 60% [||||||||||||||||||||||||||||||||||||                        ] 61% [||||||||||||||||||||||||||||||||||||                        ] 62% [|||||||||||||||||||||||||||||||||||||                       ] 63% [||||||||||||||||||||||||||||||||||||||                      ] 64% [||||||||||||||||||||||||||||||||||||||                      ] 65% [|||||||||||||||||||||||||||||||||||||||                     ] 66% [|||||||||||||||||||||||||||||||||||||||                     ] 67% [||||||||||||||||||||||||||||||||||||||||                    ] 68% [||||||||||||||||||||||||||||||||||||||||                    ] 69% [|||||||||||||||||||||||||||||||||||||||||                   ] 70% [||||||||||||||||||||||||||||||||||||||||||                  ] 71% [||||||||||||||||||||||||||||||||||||||||||                  ] 72% [|||||||||||||||||||||||||||||||||||||||||||                 ] 73% [|||||||||||||||||||||||||||||||||||||||||||                 ] 74% [||||||||||||||||||||||||||||||||||||||||||||                ] 75% [|||||||||||||||||||||||||||||||||||||||||||||               ] 76% [|||||||||||||||||||||||||||||||||||||||||||||               ] 77% [||||||||||||||||||||||||||||||||||||||||||||||              ] 78% [||||||||||||||||||||||||||||||||||||||||||||||              ] 79% [|||||||||||||||||||||||||||||||||||||||||||||||             ] 80% [||||||||||||||||||||||||||||||||||||||||||||||||            ] 81% [||||||||||||||||||||||||||||||||||||||||||||||||            ] 82% [|||||||||||||||||||||||||||||||||||||||||||||||||           ] 83% [|||||||||||||||||||||||||||||||||||||||||||||||||           ] 84% [||||||||||||||||||||||||||||||||||||||||||||||||||          ] 85% [|||||||||||||||||||||||||||||||||||||||||||||||||||         ] 86% [|||||||||||||||||||||||||||||||||||||||||||||||||||         ] 87% [||||||||||||||||||||||||||||||||||||||||||||||||||||        ] 88% [||||||||||||||||||||||||||||||||||||||||||||||||||||        ] 89% [|||||||||||||||||||||||||||||||||||||||||||||||||||||       ] 90% [||||||||||||||||||||||||||||||||||||||||||||||||||||||      ] 91% [||||||||||||||||||||||||||||||||||||||||||||||||||||||      ] 92% [|||||||||||||||||||||||||||||||||||||||||||||||||||||||     ] 93% [|||||||||||||||||||||||||||||||||||||||||||||||||||||||     ] 94% [||||||||||||||||||||||||||||||||||||||||||||||||||||||||    ] 95% [|||||||||||||||||||||||||||||||||||||||||||||||||||||||||   ] 96% [|||||||||||||||||||||||||||||||||||||||||||||||||||||||||   ] 97% [||||||||||||||||||||||||||||||||||||||||||||||||||||||||||  ] 98% [||||||||||||||||||||||||||||||||||||||||||||||||||||||||||  ] 99% [||||||||||||||||||||||||||||||||||||||||||||||||||||||||||| ]100% [||||||||||||||||||||||||||||||||||||||||||||||||||||||||||||]I/O    : uncollated
