/*---------------------------------------------------------------------------*\
| =========                 |                                                 |
| \\      /  F ield         | OpenFOAM: The Open Source CFD Toolbox           |
|  \\    /   O peration     | Version:  v2012                                 |
|   \\  /    A nd           | Website:  www.openfoam.com                      |
|    \\/     M anipulation  |                                                 |
\*---------------------------------------------------------------------------*/
Build  : _7bdb509494-20201222 OPENFOAM=2012
Arch   : "LSB;label=32;scalar=64"
Exec   : 04enKF_1DinverseHeatTransferJointEstimation
Date   : Mar 26 2021
Time   : 12:39:20
Host   : inspiron-UM
PID    : 28465
I/O    : uncollated
Case   : /media/Data/ITHACA-FV/tutorials/UQ/04enKF_1DinverseHeatTransferJointEstimation
nProcs : 1
trapFpe: Floating point exception trapping enabled (FOAM_SIGFPE).
fileModificationChecking : Monitoring run-time modified files using timeStampMaster (fileModificationSkew 5, maxFileModificationPolls 20)
allowSystemOperations : Allowing user-supplied system call operations

// * * * * * * * * * * * * * * * * * * * * * * * * * * * * * * * * * * * * * //
Reading field p

Create time

Reading field p

Create mesh for time = 0

Offline data already exist, reading existing data
POD data already exist, reading existing modes

SIMPLE: convergence criteria
    field T	 tolerance 1e-06
    field lambda	 tolerance 1e-06
    field deltaT	 tolerance 1e-06

startTime = 0
endTime = 9.4
deltaTime = 0.2
Ntimes = 47
Observation size = 5
State size = 20
Parameter size = 1
First observation at time = 1 s
Observations taken every 2 timesteps

****************************************


Performing true solution


SIMPLE: convergence criteria
    field T	 tolerance 1e-06
    field lambda	 tolerance 1e-06
    field deltaT	 tolerance 1e-06

Thermal diffusivity = diffusivity [0 2 -1 0 0 0 0] 0.3 m2/s

Time = 0.2 s
debug 1
trueTimeVec.size() = 47
timeI = 1
debug 2
debug 3
DICPCG:  Solving for T, Initial residual = 1, Final residual = 4.85548e-16, No Iterations 1

Time = 0.4 s
debug 1
trueTimeVec.size() = 47
timeI = 2
debug 2
debug 3
DICPCG:  Solving for T, Initial residual = 0.0552417, Final residual = 9.01273e-17, No Iterations 1

Time = 0.6 s
debug 1
trueTimeVec.size() = 47
timeI = 3
debug 2
debug 3
DICPCG:  Solving for T, Initial residual = 0.0224992, Final residual = 6.42223e-17, No Iterations 1

Time = 0.8 s
debug 1
trueTimeVec.size() = 47
timeI = 4
debug 2
debug 3
DICPCG:  Solving for T, Initial residual = 0.0144381, Final residual = 4.75269e-17, No Iterations 1

Time = 1 s
debug 1
trueTimeVec.size() = 47
timeI = 5
debug 2
debug 3
DICPCG:  Solving for T, Initial residual = 0.0107529, Final residual = 3.46829e-17, No Iterations 1
Sampling at time = 1


Time = 1.2 s
debug 1
trueTimeVec.size() = 47
timeI = 6
debug 2
debug 3
DICPCG:  Solving for T, Initial residual = 0.00849923, Final residual = 2.44153e-17, No Iterations 1

Time = 1.4 s
debug 1
trueTimeVec.size() = 47
timeI = 7
debug 2
debug 3
DICPCG:  Solving for T, Initial residual = 0.00689448, Final residual = 1.7416e-17, No Iterations 1
Sampling at time = 1.4


Time = 1.6 s
debug 1
trueTimeVec.size() = 47
timeI = 8
debug 2
debug 3
DICPCG:  Solving for T, Initial residual = 0.00562783, Final residual = 1.59007e-17, No Iterations 1

Time = 1.8 s
debug 1
trueTimeVec.size() = 47
timeI = 9
debug 2
debug 3
DICPCG:  Solving for T, Initial residual = 0.00456861, Final residual = 1.78285e-17, No Iterations 1
Sampling at time = 1.8


Time = 2 s
debug 1
trueTimeVec.size() = 47
timeI = 10
debug 2
debug 3
DICPCG:  Solving for T, Initial residual = 0.00366213, Final residual = 8.7614e-18, No Iterations 1

Time = 2.2 s
debug 1
trueTimeVec.size() = 47
timeI = 11
debug 2
debug 3
DICPCG:  Solving for T, Initial residual = 0.00288532, Final residual = 8.24498e-18, No Iterations 1
Sampling at time = 2.2


Time = 2.4 s
debug 1
trueTimeVec.size() = 47
timeI = 12
debug 2
debug 3
DICPCG:  Solving for T, Initial residual = 0.00222728, Final residual = 5.42791e-18, No Iterations 1

Time = 2.6 s
debug 1
trueTimeVec.size() = 47
timeI = 13
debug 2
debug 3
DICPCG:  Solving for T, Initial residual = 0.00168016, Final residual = 4.94977e-18, No Iterations 1
Sampling at time = 2.6


Time = 2.8 s
debug 1
trueTimeVec.size() = 47
timeI = 14
debug 2
debug 3
DICPCG:  Solving for T, Initial residual = 0.00123661, Final residual = 2.06588e-18, No Iterations 1

Time = 3 s
debug 1
trueTimeVec.size() = 47
timeI = 15
debug 2
debug 3
DICPCG:  Solving for T, Initial residual = 0.000888836, Final residual = 2.73371e-18, No Iterations 1
Sampling at time = 3


Time = 3.2 s
debug 1
trueTimeVec.size() = 47
timeI = 16
debug 2
debug 3
DICPCG:  Solving for T, Initial residual = 0.000674354, Final residual = 2.10353e-18, No Iterations 1

Time = 3.4 s
debug 1
trueTimeVec.size() = 47
timeI = 17
debug 2
debug 3
DICPCG:  Solving for T, Initial residual = 0.000624818, Final residual = 2.67112e-18, No Iterations 1
Sampling at time = 3.4


Time = 3.6 s
debug 1
trueTimeVec.size() = 47
timeI = 18
debug 2
debug 3
DICPCG:  Solving for T, Initial residual = 0.000659175, Final residual = 2.12228e-18, No Iterations 1

Time = 3.8 s
debug 1
trueTimeVec.size() = 47
timeI = 19
debug 2
debug 3
DICPCG:  Solving for T, Initial residual = 0.000766504, Final residual = 2.91276e-18, No Iterations 1
Sampling at time = 3.8


Time = 4 s
debug 1
trueTimeVec.size() = 47
timeI = 20
debug 2
debug 3
DICPCG:  Solving for T, Initial residual = 0.000936779, Final residual = 3.1676e-18, No Iterations 1

Time = 4.2 s
debug 1
trueTimeVec.size() = 47
timeI = 21
debug 2
debug 3
DICPCG:  Solving for T, Initial residual = 0.00116094, Final residual = 4.65913e-18, No Iterations 1
Sampling at time = 4.2


Time = 4.4 s
debug 1
trueTimeVec.size() = 47
timeI = 22
debug 2
debug 3
DICPCG:  Solving for T, Initial residual = 0.00143092, Final residual = 4.48128e-18, No Iterations 1

Time = 4.6 s
debug 1
trueTimeVec.size() = 47
timeI = 23
debug 2
debug 3
DICPCG:  Solving for T, Initial residual = 0.00173957, Final residual = 6.98234e-18, No Iterations 1
Sampling at time = 4.6


Time = 4.8 s
debug 1
trueTimeVec.size() = 47
timeI = 24
debug 2
debug 3
DICPCG:  Solving for T, Initial residual = 0.00208055, Final residual = 5.41341e-18, No Iterations 1

Time = 5 s
debug 1
trueTimeVec.size() = 47
timeI = 25
debug 2
debug 3
DICPCG:  Solving for T, Initial residual = 0.00244829, Final residual = 7.21309e-18, No Iterations 1
Sampling at time = 5


Time = 5.2 s
debug 1
trueTimeVec.size() = 47
timeI = 26
debug 2
debug 3
DICPCG:  Solving for T, Initial residual = 0.0028378, Final residual = 1.21312e-17, No Iterations 1

Time = 5.4 s
debug 1
trueTimeVec.size() = 47
timeI = 27
debug 2
debug 3
DICPCG:  Solving for T, Initial residual = 0.00324456, Final residual = 9.50525e-18, No Iterations 1
Sampling at time = 5.4


Time = 5.6 s
debug 1
trueTimeVec.size() = 47
timeI = 28
debug 2
debug 3
DICPCG:  Solving for T, Initial residual = 0.00366442, Final residual = 1.43877e-17, No Iterations 1

Time = 5.8 s
debug 1
trueTimeVec.size() = 47
timeI = 29
debug 2
debug 3
DICPCG:  Solving for T, Initial residual = 0.00409343, Final residual = 1.42135e-17, No Iterations 1
Sampling at time = 5.8


Time = 6 s
debug 1
trueTimeVec.size() = 47
timeI = 30
debug 2
debug 3
DICPCG:  Solving for T, Initial residual = 0.00452776, Final residual = 1.34507e-17, No Iterations 1

Time = 6.2 s
debug 1
trueTimeVec.size() = 47
timeI = 31
debug 2
debug 3
DICPCG:  Solving for T, Initial residual = 0.00496354, Final residual = 1.79053e-17, No Iterations 1
Sampling at time = 6.2


Time = 6.4 s
debug 1
trueTimeVec.size() = 47
timeI = 32
debug 2
debug 3
DICPCG:  Solving for T, Initial residual = 0.00539671, Final residual = 1.481e-17, No Iterations 1

Time = 6.6 s
debug 1
trueTimeVec.size() = 47
timeI = 33
debug 2
debug 3
DICPCG:  Solving for T, Initial residual = 0.00582294, Final residual = 1.84927e-17, No Iterations 1
Sampling at time = 6.6


Time = 6.8 s
debug 1
trueTimeVec.size() = 47
timeI = 34
debug 2
debug 3
DICPCG:  Solving for T, Initial residual = 0.00623721, Final residual = 2.45207e-17, No Iterations 1

Time = 7 s
debug 1
trueTimeVec.size() = 47
timeI = 35
debug 2
debug 3
DICPCG:  Solving for T, Initial residual = 0.00663418, Final residual = 2.36476e-17, No Iterations 1
Sampling at time = 7


Time = 7.2 s
debug 1
trueTimeVec.size() = 47
timeI = 36
debug 2
debug 3
DICPCG:  Solving for T, Initial residual = 0.00700797, Final residual = 1.74465e-17, No Iterations 1

Time = 7.4 s
debug 1
trueTimeVec.size() = 47
timeI = 37
debug 2
debug 3
DICPCG:  Solving for T, Initial residual = 0.00735165, Final residual = 1.3616e-17, No Iterations 1
Sampling at time = 7.4


Time = 7.6 s
debug 1
trueTimeVec.size() = 47
timeI = 38
debug 2
debug 3
DICPCG:  Solving for T, Initial residual = 0.00765733, Final residual = 2.287e-17, No Iterations 1

Time = 7.8 s
debug 1
trueTimeVec.size() = 47
timeI = 39
debug 2
debug 3
DICPCG:  Solving for T, Initial residual = 0.00791601, Final residual = 2.26773e-17, No Iterations 1
Sampling at time = 7.8


Time = 8 s
debug 1
trueTimeVec.size() = 47
timeI = 40
debug 2
debug 3
DICPCG:  Solving for T, Initial residual = 0.00811757, Final residual = 2.38318e-17, No Iterations 1

Time = 8.2 s
debug 1
trueTimeVec.size() = 47
timeI = 41
debug 2
debug 3
DICPCG:  Solving for T, Initial residual = 0.00825077, Final residual = 2.45113e-17, No Iterations 1
Sampling at time = 8.2


Time = 8.4 s
debug 1
trueTimeVec.size() = 47
timeI = 42
debug 2
debug 3
DICPCG:  Solving for T, Initial residual = 0.00830336, Final residual = 3.4639e-17, No Iterations 1

Time = 8.6 s
debug 1
trueTimeVec.size() = 47
timeI = 43
debug 2
debug 3
DICPCG:  Solving for T, Initial residual = 0.00826239, Final residual = 2.35992e-17, No Iterations 1
Sampling at time = 8.6


Time = 8.8 s
debug 1
trueTimeVec.size() = 47
timeI = 44
debug 2
debug 3
DICPCG:  Solving for T, Initial residual = 0.00811466, Final residual = 2.6645e-17, No Iterations 1

Time = 9 s
debug 1
trueTimeVec.size() = 47
timeI = 45
debug 2
debug 3
DICPCG:  Solving for T, Initial residual = 0.0078475, Final residual = 2.10901e-17, No Iterations 1
Sampling at time = 9


Time = 9.2 s
debug 1
trueTimeVec.size() = 47
timeI = 46
debug 2
debug 3
DICPCG:  Solving for T, Initial residual = 0.00744969, Final residual = 1.69909e-17, No Iterations 1

Time = 9.4 s
debug 1
trueTimeVec.size() = 47
timeI = 47
debug 2
debug 3
DICPCG:  Solving for T, Initial residual = 0.00691279, Final residual = 2.24257e-17, No Iterations 1
Sampling at time = 9.4

Number of samples in time = 22
Number of sample in space = 5

END true solution


****************************************

trueObservations = 
9.32199 8.79281 8.45487 8.26077 8.15789  8.1019 8.05781 7.99902 7.90636 7.76717 7.57462 7.32696 7.02694 6.68109  6.2991 5.89307 5.47682 5.06516 4.67313 4.31532 4.00522 3.75459
7.53713 6.99335 6.65465 6.45428 6.34284 6.28197 6.24173 6.19923 6.13753   6.045 5.91461 5.74343 5.53211  5.2844 5.00663 4.70718 4.39593 4.08374 3.78189 3.50151 3.25311 3.04606
 6.5519 6.03321 5.71728 5.52949 5.42361 5.36549 5.32878 5.29326 5.24391 5.17025 5.06574 4.92737 4.75521   4.552  4.3227 4.07407 3.81421 3.55211  3.2972 3.05882 2.84591 2.66647
5.50344 5.03533 4.75693 4.59122  4.4969 4.44488 4.41298 4.38417 4.34576 4.28875 4.20745 4.09905 3.96327 3.80205 3.61917  3.4199 3.21069  2.9987 2.79151 2.59672 2.42159 2.27272
3.23399 2.94456 2.77929  2.6811  2.6246 2.59322 2.57457 2.55915 2.53982 2.51147 2.47078 2.41599 2.34671 2.26376 2.16897 2.06498 1.95511 1.84308 1.73286 1.62849 1.53383 1.45245
trueObservations w. error = 
9.40456 8.87753 8.36708 8.08699 8.20076 8.11774 8.14221 7.94904 7.80824 7.66529 7.47962 7.23676 7.04992 6.81481 6.42688 5.73225 5.47659 5.10575 4.67915 4.25961 4.06061 3.79761
7.44346 6.94539  6.7523 6.48472 6.37377 6.30722  6.1745 6.02439 6.01339 6.03417 6.07858 5.80773 5.50895 5.23532 5.18206 4.87293 4.46805 4.14943 3.83013 3.51209 3.16451 2.94843
 6.3686 6.13934 5.72009 5.58149 5.40526 5.40883 5.18849 5.35558 5.31193 5.28814 4.94343 4.98111 4.67935 4.52152 4.42046 3.99428 3.96568 3.58508 3.23939 2.97795 2.76231  2.5256
5.48813  5.1464 4.85516 4.46762 4.53912 4.34984 4.43942  4.5075 4.51725 4.13731  4.2321 4.16299 3.82932 3.90229 3.65974 3.56693 3.25718 2.98323 2.96116  2.5576 2.45767 2.03523
3.32006 3.02646 2.96027 2.72526  2.5379 2.70305  2.6697 2.66933 2.58702 2.46058 2.51824  2.4752 2.44025 2.46732 2.02865 2.11601 1.67136 1.66539 1.76402  1.6171 1.71848 1.48251
timeSamp 0
debug : stateMean before proj = 
   0.452331  -0.0638702    0.349433  -0.0586442   0.0635477   -0.178924    -0.40051    0.452536    0.470712     0.41654  -0.0239319  -0.0173619   0.0557601    0.151782 -0.00993799    0.228383   -0.304875   -0.248636   -0.295734  -0.0343556
************************************************

Projecting sample 1

debug : timeReset, start = 0, index = 0, endTime = 1

SIMPLE: convergence criteria
    field T	 tolerance 1e-06
    field lambda	 tolerance 1e-06
    field deltaT	 tolerance 1e-06

Thermal diffusivity = diffusivity [0 2 -1 0 0 0 0] 0.3 m2/s
debug : BCsample = -0.103948

Time = 0.2 s
DICPCG:  Solving for T, Initial residual = 0.950579, Final residual = 1.94056e-16, No Iterations 1

Time = 0.4 s
DICPCG:  Solving for T, Initial residual = 0.46756, Final residual = 3.54802e-16, No Iterations 1

Time = 0.6 s
DICPCG:  Solving for T, Initial residual = 0.255652, Final residual = 3.56274e-16, No Iterations 1

Time = 0.8 s
DICPCG:  Solving for T, Initial residual = 0.275952, Final residual = 5.18756e-16, No Iterations 1

Time = 1 s
DICPCG:  Solving for T, Initial residual = 0.117917, Final residual = 3.48856e-16, No Iterations 1
************************************************

Projecting sample 2

debug : timeReset, start = 0, index = 0, endTime = 1

SIMPLE: convergence criteria
    field T	 tolerance 1e-06
    field lambda	 tolerance 1e-06
    field deltaT	 tolerance 1e-06

Thermal diffusivity = diffusivity [0 2 -1 0 0 0 0] 0.3 m2/s
debug : BCsample = -2.1982

Time = 0.2 s
DICPCG:  Solving for T, Initial residual = 0.965742, Final residual = 2.21779e-16, No Iterations 1

Time = 0.4 s
DICPCG:  Solving for T, Initial residual = 0.320123, Final residual = 3.58033e-16, No Iterations 1

Time = 0.6 s
DICPCG:  Solving for T, Initial residual = 0.215639, Final residual = 6.24075e-16, No Iterations 1

Time = 0.8 s
DICPCG:  Solving for T, Initial residual = 0.0929594, Final residual = 3.2893e-16, No Iterations 1

Time = 1 s
DICPCG:  Solving for T, Initial residual = 0.0555176, Final residual = 2.0065e-16, No Iterations 1
************************************************

Projecting sample 3

debug : timeReset, start = 0, index = 0, endTime = 1

SIMPLE: convergence criteria
    field T	 tolerance 1e-06
    field lambda	 tolerance 1e-06
    field deltaT	 tolerance 1e-06

Thermal diffusivity = diffusivity [0 2 -1 0 0 0 0] 0.3 m2/s
debug : BCsample = 0.445045

Time = 0.2 s
DICPCG:  Solving for T, Initial residual = 0.944268, Final residual = 1.344e-16, No Iterations 1

Time = 0.4 s
DICPCG:  Solving for T, Initial residual = 0.307343, Final residual = 1.02775e-16, No Iterations 1

Time = 0.6 s
DICPCG:  Solving for T, Initial residual = 0.0337946, Final residual = 4.52578e-17, No Iterations 1

Time = 0.8 s
DICPCG:  Solving for T, Initial residual = 0.0141079, Final residual = 1.95671e-17, No Iterations 1

Time = 1 s
DICPCG:  Solving for T, Initial residual = 0.00655601, Final residual = 1.69575e-17, No Iterations 1
************************************************

Projecting sample 4

debug : timeReset, start = 0, index = 0, endTime = 1

SIMPLE: convergence criteria
    field T	 tolerance 1e-06
    field lambda	 tolerance 1e-06
    field deltaT	 tolerance 1e-06

Thermal diffusivity = diffusivity [0 2 -1 0 0 0 0] 0.3 m2/s
debug : BCsample = 4.07231

Time = 0.2 s
DICPCG:  Solving for T, Initial residual = 0.95963, Final residual = 8.34451e-17, No Iterations 1

Time = 0.4 s
DICPCG:  Solving for T, Initial residual = 0.143106, Final residual = 1.7273e-16, No Iterations 1

Time = 0.6 s
DICPCG:  Solving for T, Initial residual = 0.0382228, Final residual = 8.59913e-17, No Iterations 1

Time = 0.8 s
DICPCG:  Solving for T, Initial residual = 0.0273039, Final residual = 9.68795e-17, No Iterations 1

Time = 1 s
DICPCG:  Solving for T, Initial residual = 0.0216143, Final residual = 6.58197e-17, No Iterations 1
************************************************

Projecting sample 5

debug : timeReset, start = 0, index = 0, endTime = 1

SIMPLE: convergence criteria
    field T	 tolerance 1e-06
    field lambda	 tolerance 1e-06
    field deltaT	 tolerance 1e-06

Thermal diffusivity = diffusivity [0 2 -1 0 0 0 0] 0.3 m2/s
debug : BCsample = 0.132631

Time = 0.2 s
DICPCG:  Solving for T, Initial residual = 0.965443, Final residual = 1.43806e-16, No Iterations 1

Time = 0.4 s
DICPCG:  Solving for T, Initial residual = 0.714945, Final residual = 1.6074e-16, No Iterations 1

Time = 0.6 s
DICPCG:  Solving for T, Initial residual = 0.0815547, Final residual = 1.05371e-16, No Iterations 1

Time = 0.8 s
DICPCG:  Solving for T, Initial residual = 0.0283431, Final residual = 5.48744e-17, No Iterations 1

Time = 1 s
DICPCG:  Solving for T, Initial residual = 0.0125973, Final residual = 2.33217e-17, No Iterations 1
************************************************

Projecting sample 6

debug : timeReset, start = 0, index = 0, endTime = 1

SIMPLE: convergence criteria
    field T	 tolerance 1e-06
    field lambda	 tolerance 1e-06
    field deltaT	 tolerance 1e-06

Thermal diffusivity = diffusivity [0 2 -1 0 0 0 0] 0.3 m2/s
debug : BCsample = -0.0543131

Time = 0.2 s
DICPCG:  Solving for T, Initial residual = 0.955157, Final residual = 1.5737e-16, No Iterations 1

Time = 0.4 s
DICPCG:  Solving for T, Initial residual = 0.303563, Final residual = 1.52806e-16, No Iterations 1

Time = 0.6 s
DICPCG:  Solving for T, Initial residual = 0.0498419, Final residual = 1.70412e-16, No Iterations 1

Time = 0.8 s
DICPCG:  Solving for T, Initial residual = 0.0362119, Final residual = 1.49761e-16, No Iterations 1

Time = 1 s
DICPCG:  Solving for T, Initial residual = 0.0341614, Final residual = 1.05824e-16, No Iterations 1
************************************************

Projecting sample 7

debug : timeReset, start = 0, index = 0, endTime = 1

SIMPLE: convergence criteria
    field T	 tolerance 1e-06
    field lambda	 tolerance 1e-06
    field deltaT	 tolerance 1e-06

Thermal diffusivity = diffusivity [0 2 -1 0 0 0 0] 0.3 m2/s
debug : BCsample = -0.691253

Time = 0.2 s
DICPCG:  Solving for T, Initial residual = 0.953333, Final residual = 1.51668e-16, No Iterations 1

Time = 0.4 s
DICPCG:  Solving for T, Initial residual = 0.373806, Final residual = 3.31814e-16, No Iterations 1

Time = 0.6 s
DICPCG:  Solving for T, Initial residual = 0.121553, Final residual = 2.72192e-16, No Iterations 1

Time = 0.8 s
DICPCG:  Solving for T, Initial residual = 0.16263, Final residual = 6.73528e-16, No Iterations 1

Time = 1 s
DICPCG:  Solving for T, Initial residual = 0.185985, Final residual = 6.49131e-16, No Iterations 1
************************************************

Projecting sample 8

debug : timeReset, start = 0, index = 0, endTime = 1

SIMPLE: convergence criteria
    field T	 tolerance 1e-06
    field lambda	 tolerance 1e-06
    field deltaT	 tolerance 1e-06

Thermal diffusivity = diffusivity [0 2 -1 0 0 0 0] 0.3 m2/s
debug : BCsample = -3.04959

Time = 0.2 s
DICPCG:  Solving for T, Initial residual = 0.976367, Final residual = 6.93175e-17, No Iterations 1

Time = 0.4 s
DICPCG:  Solving for T, Initial residual = 0.265968, Final residual = 2.68826e-16, No Iterations 1

Time = 0.6 s
DICPCG:  Solving for T, Initial residual = 0.0611527, Final residual = 1.5225e-16, No Iterations 1

Time = 0.8 s
DICPCG:  Solving for T, Initial residual = 0.0413913, Final residual = 1.24383e-16, No Iterations 1

Time = 1 s
DICPCG:  Solving for T, Initial residual = 0.0306804, Final residual = 1.18561e-16, No Iterations 1
************************************************

Projecting sample 9

debug : timeReset, start = 0, index = 0, endTime = 1

SIMPLE: convergence criteria
    field T	 tolerance 1e-06
    field lambda	 tolerance 1e-06
    field deltaT	 tolerance 1e-06

Thermal diffusivity = diffusivity [0 2 -1 0 0 0 0] 0.3 m2/s
debug : BCsample = 1.06435

Time = 0.2 s
DICPCG:  Solving for T, Initial residual = 0.979895, Final residual = 6.52044e-17, No Iterations 1

Time = 0.4 s
DICPCG:  Solving for T, Initial residual = 0.395375, Final residual = 1.41467e-16, No Iterations 1

Time = 0.6 s
DICPCG:  Solving for T, Initial residual = 0.0530539, Final residual = 1.02858e-16, No Iterations 1

Time = 0.8 s
DICPCG:  Solving for T, Initial residual = 0.025155, Final residual = 7.78688e-17, No Iterations 1

Time = 1 s
DICPCG:  Solving for T, Initial residual = 0.0183172, Final residual = 6.64815e-17, No Iterations 1
************************************************

Projecting sample 10

debug : timeReset, start = 0, index = 0, endTime = 1

SIMPLE: convergence criteria
    field T	 tolerance 1e-06
    field lambda	 tolerance 1e-06
    field deltaT	 tolerance 1e-06

Thermal diffusivity = diffusivity [0 2 -1 0 0 0 0] 0.3 m2/s
debug : BCsample = 0.97918

Time = 0.2 s
DICPCG:  Solving for T, Initial residual = 0.977017, Final residual = 1.09576e-16, No Iterations 1

Time = 0.4 s
DICPCG:  Solving for T, Initial residual = 0.33456, Final residual = 1.38843e-16, No Iterations 1

Time = 0.6 s
DICPCG:  Solving for T, Initial residual = 0.0340766, Final residual = 8.68079e-17, No Iterations 1

Time = 0.8 s
DICPCG:  Solving for T, Initial residual = 0.0209571, Final residual = 4.78223e-17, No Iterations 1

Time = 1 s
DICPCG:  Solving for T, Initial residual = 0.0165076, Final residual = 4.41857e-17, No Iterations 1
************************************************

Projecting sample 11

debug : timeReset, start = 0, index = 0, endTime = 1

SIMPLE: convergence criteria
    field T	 tolerance 1e-06
    field lambda	 tolerance 1e-06
    field deltaT	 tolerance 1e-06

Thermal diffusivity = diffusivity [0 2 -1 0 0 0 0] 0.3 m2/s
debug : BCsample = -4.8727

Time = 0.2 s
DICPCG:  Solving for T, Initial residual = 0.958273, Final residual = 5.71613e-17, No Iterations 1

Time = 0.4 s
DICPCG:  Solving for T, Initial residual = 0.246007, Final residual = 4.55008e-16, No Iterations 1

Time = 0.6 s
DICPCG:  Solving for T, Initial residual = 0.0770934, Final residual = 2.80413e-16, No Iterations 1

Time = 0.8 s
DICPCG:  Solving for T, Initial residual = 0.0488465, Final residual = 2.14143e-16, No Iterations 1

Time = 1 s
DICPCG:  Solving for T, Initial residual = 0.0346485, Final residual = 1.12245e-16, No Iterations 1
************************************************

Projecting sample 12

debug : timeReset, start = 0, index = 0, endTime = 1

SIMPLE: convergence criteria
    field T	 tolerance 1e-06
    field lambda	 tolerance 1e-06
    field deltaT	 tolerance 1e-06

Thermal diffusivity = diffusivity [0 2 -1 0 0 0 0] 0.3 m2/s
debug : BCsample = -1.44713

Time = 0.2 s
DICPCG:  Solving for T, Initial residual = 0.939285, Final residual = 1.88522e-16, No Iterations 1

Time = 0.4 s
DICPCG:  Solving for T, Initial residual = 0.420577, Final residual = 2.03899e-16, No Iterations 1

Time = 0.6 s
DICPCG:  Solving for T, Initial residual = 0.221408, Final residual = 6.81599e-16, No Iterations 1

Time = 0.8 s
DICPCG:  Solving for T, Initial residual = 0.137412, Final residual = 4.61757e-16, No Iterations 1

Time = 1 s
DICPCG:  Solving for T, Initial residual = 0.0727527, Final residual = 1.71285e-16, No Iterations 1
************************************************

Projecting sample 13

debug : timeReset, start = 0, index = 0, endTime = 1

SIMPLE: convergence criteria
    field T	 tolerance 1e-06
    field lambda	 tolerance 1e-06
    field deltaT	 tolerance 1e-06

Thermal diffusivity = diffusivity [0 2 -1 0 0 0 0] 0.3 m2/s
debug : BCsample = 1.0677

Time = 0.2 s
DICPCG:  Solving for T, Initial residual = 0.97588, Final residual = 1.12013e-16, No Iterations 1

Time = 0.4 s
DICPCG:  Solving for T, Initial residual = 0.417889, Final residual = 2.76948e-16, No Iterations 1

Time = 0.6 s
DICPCG:  Solving for T, Initial residual = 0.0595469, Final residual = 1.34004e-16, No Iterations 1

Time = 0.8 s
DICPCG:  Solving for T, Initial residual = 0.0302809, Final residual = 8.96271e-17, No Iterations 1

Time = 1 s
DICPCG:  Solving for T, Initial residual = 0.0211721, Final residual = 6.80403e-17, No Iterations 1
************************************************

Projecting sample 14

debug : timeReset, start = 0, index = 0, endTime = 1

SIMPLE: convergence criteria
    field T	 tolerance 1e-06
    field lambda	 tolerance 1e-06
    field deltaT	 tolerance 1e-06

Thermal diffusivity = diffusivity [0 2 -1 0 0 0 0] 0.3 m2/s
debug : BCsample = -0.16595

Time = 0.2 s
DICPCG:  Solving for T, Initial residual = 0.975619, Final residual = 2.21629e-16, No Iterations 1

Time = 0.4 s
DICPCG:  Solving for T, Initial residual = 0.314334, Final residual = 2.17282e-16, No Iterations 1

Time = 0.6 s
DICPCG:  Solving for T, Initial residual = 0.0551543, Final residual = 1.59108e-16, No Iterations 1

Time = 0.8 s
DICPCG:  Solving for T, Initial residual = 0.0541949, Final residual = 1.95878e-16, No Iterations 1

Time = 1 s
DICPCG:  Solving for T, Initial residual = 0.060451, Final residual = 2.14665e-16, No Iterations 1
************************************************

Projecting sample 15

debug : timeReset, start = 0, index = 0, endTime = 1

SIMPLE: convergence criteria
    field T	 tolerance 1e-06
    field lambda	 tolerance 1e-06
    field deltaT	 tolerance 1e-06

Thermal diffusivity = diffusivity [0 2 -1 0 0 0 0] 0.3 m2/s
debug : BCsample = 1.64233

Time = 0.2 s
DICPCG:  Solving for T, Initial residual = 0.975939, Final residual = 4.64891e-16, No Iterations 1

Time = 0.4 s
DICPCG:  Solving for T, Initial residual = 0.356096, Final residual = 2.41024e-16, No Iterations 1

Time = 0.6 s
DICPCG:  Solving for T, Initial residual = 0.0546796, Final residual = 2.01591e-16, No Iterations 1

Time = 0.8 s
DICPCG:  Solving for T, Initial residual = 0.0369101, Final residual = 1.35497e-16, No Iterations 1

Time = 1 s
DICPCG:  Solving for T, Initial residual = 0.0273159, Final residual = 9.1568e-17, No Iterations 1
************************************************

Projecting sample 16

debug : timeReset, start = 0, index = 0, endTime = 1

SIMPLE: convergence criteria
    field T	 tolerance 1e-06
    field lambda	 tolerance 1e-06
    field deltaT	 tolerance 1e-06

Thermal diffusivity = diffusivity [0 2 -1 0 0 0 0] 0.3 m2/s
debug : BCsample = -4.01187

Time = 0.2 s
DICPCG:  Solving for T, Initial residual = 0.94965, Final residual = 7.06959e-17, No Iterations 1

Time = 0.4 s
DICPCG:  Solving for T, Initial residual = 0.200857, Final residual = 2.00758e-16, No Iterations 1

Time = 0.6 s
DICPCG:  Solving for T, Initial residual = 0.0560386, Final residual = 1.67925e-16, No Iterations 1

Time = 0.8 s
DICPCG:  Solving for T, Initial residual = 0.0367867, Final residual = 1.22064e-16, No Iterations 1

Time = 1 s
DICPCG:  Solving for T, Initial residual = 0.0270445, Final residual = 8.88276e-17, No Iterations 1
************************************************

Projecting sample 17

debug : timeReset, start = 0, index = 0, endTime = 1

SIMPLE: convergence criteria
    field T	 tolerance 1e-06
    field lambda	 tolerance 1e-06
    field deltaT	 tolerance 1e-06

Thermal diffusivity = diffusivity [0 2 -1 0 0 0 0] 0.3 m2/s
debug : BCsample = -1.50745

Time = 0.2 s
DICPCG:  Solving for T, Initial residual = 0.971288, Final residual = 1.60951e-16, No Iterations 1

Time = 0.4 s
DICPCG:  Solving for T, Initial residual = 0.451415, Final residual = 4.68455e-16, No Iterations 1

Time = 0.6 s
DICPCG:  Solving for T, Initial residual = 0.256755, Final residual = 7.6926e-16, No Iterations 1

Time = 0.8 s
DICPCG:  Solving for T, Initial residual = 0.119204, Final residual = 3.06726e-16, No Iterations 1

Time = 1 s
DICPCG:  Solving for T, Initial residual = 0.0667359, Final residual = 1.95207e-16, No Iterations 1
************************************************

Projecting sample 18

debug : timeReset, start = 0, index = 0, endTime = 1

SIMPLE: convergence criteria
    field T	 tolerance 1e-06
    field lambda	 tolerance 1e-06
    field deltaT	 tolerance 1e-06

Thermal diffusivity = diffusivity [0 2 -1 0 0 0 0] 0.3 m2/s
debug : BCsample = -1.81091

Time = 0.2 s
DICPCG:  Solving for T, Initial residual = 0.950446, Final residual = 7.65376e-17, No Iterations 1

Time = 0.4 s
DICPCG:  Solving for T, Initial residual = 0.457802, Final residual = 4.54819e-16, No Iterations 1

Time = 0.6 s
DICPCG:  Solving for T, Initial residual = 0.086198, Final residual = 3.04001e-16, No Iterations 1

Time = 0.8 s
DICPCG:  Solving for T, Initial residual = 0.0536633, Final residual = 1.85919e-16, No Iterations 1

Time = 1 s
DICPCG:  Solving for T, Initial residual = 0.037051, Final residual = 7.45e-17, No Iterations 1
************************************************

Projecting sample 19

debug : timeReset, start = 0, index = 0, endTime = 1

SIMPLE: convergence criteria
    field T	 tolerance 1e-06
    field lambda	 tolerance 1e-06
    field deltaT	 tolerance 1e-06

Thermal diffusivity = diffusivity [0 2 -1 0 0 0 0] 0.3 m2/s
debug : BCsample = 1.36954

Time = 0.2 s
DICPCG:  Solving for T, Initial residual = 0.96753, Final residual = 1.35349e-16, No Iterations 1

Time = 0.4 s
DICPCG:  Solving for T, Initial residual = 0.684761, Final residual = 4.61174e-16, No Iterations 1

Time = 0.6 s
DICPCG:  Solving for T, Initial residual = 0.158338, Final residual = 5.58451e-16, No Iterations 1

Time = 0.8 s
DICPCG:  Solving for T, Initial residual = 0.0744138, Final residual = 2.93608e-16, No Iterations 1

Time = 1 s
DICPCG:  Solving for T, Initial residual = 0.0486091, Final residual = 1.65355e-16, No Iterations 1
************************************************

Projecting sample 20

debug : timeReset, start = 0, index = 0, endTime = 1

SIMPLE: convergence criteria
    field T	 tolerance 1e-06
    field lambda	 tolerance 1e-06
    field deltaT	 tolerance 1e-06

Thermal diffusivity = diffusivity [0 2 -1 0 0 0 0] 0.3 m2/s
debug : BCsample = 0.193928

Time = 0.2 s
DICPCG:  Solving for T, Initial residual = 0.979225, Final residual = 2.90108e-17, No Iterations 1

Time = 0.4 s
DICPCG:  Solving for T, Initial residual = 0.595028, Final residual = 7.4777e-17, No Iterations 1

Time = 0.6 s
DICPCG:  Solving for T, Initial residual = 0.0291633, Final residual = 3.62661e-17, No Iterations 1

Time = 0.8 s
DICPCG:  Solving for T, Initial residual = 0.00861023, Final residual = 2.49399e-17, No Iterations 1

Time = 1 s
DICPCG:  Solving for T, Initial residual = 0.00488577, Final residual = 1.25187e-17, No Iterations 1
************************************************

Projecting sample 21

debug : timeReset, start = 0, index = 0, endTime = 1

SIMPLE: convergence criteria
    field T	 tolerance 1e-06
    field lambda	 tolerance 1e-06
    field deltaT	 tolerance 1e-06

Thermal diffusivity = diffusivity [0 2 -1 0 0 0 0] 0.3 m2/s
debug : BCsample = -1.31473

Time = 0.2 s
DICPCG:  Solving for T, Initial residual = 0.914163, Final residual = 5.9637e-17, No Iterations 1

Time = 0.4 s
DICPCG:  Solving for T, Initial residual = 0.222038, Final residual = 1.82942e-16, No Iterations 1

Time = 0.6 s
DICPCG:  Solving for T, Initial residual = 0.0818389, Final residual = 2.59464e-16, No Iterations 1

Time = 0.8 s
DICPCG:  Solving for T, Initial residual = 0.116376, Final residual = 4.27662e-16, No Iterations 1

Time = 1 s
DICPCG:  Solving for T, Initial residual = 0.207439, Final residual = 8.03608e-16, No Iterations 1
************************************************

Projecting sample 22

debug : timeReset, start = 0, index = 0, endTime = 1

SIMPLE: convergence criteria
    field T	 tolerance 1e-06
    field lambda	 tolerance 1e-06
    field deltaT	 tolerance 1e-06

Thermal diffusivity = diffusivity [0 2 -1 0 0 0 0] 0.3 m2/s
debug : BCsample = -3.74936

Time = 0.2 s
DICPCG:  Solving for T, Initial residual = 0.959995, Final residual = 6.52994e-17, No Iterations 1

Time = 0.4 s
DICPCG:  Solving for T, Initial residual = 0.263367, Final residual = 2.90008e-16, No Iterations 1

Time = 0.6 s
DICPCG:  Solving for T, Initial residual = 0.0656203, Final residual = 2.24715e-16, No Iterations 1

Time = 0.8 s
DICPCG:  Solving for T, Initial residual = 0.0441451, Final residual = 1.57697e-16, No Iterations 1

Time = 1 s
DICPCG:  Solving for T, Initial residual = 0.0319866, Final residual = 8.56141e-17, No Iterations 1
************************************************

Projecting sample 23

debug : timeReset, start = 0, index = 0, endTime = 1

SIMPLE: convergence criteria
    field T	 tolerance 1e-06
    field lambda	 tolerance 1e-06
    field deltaT	 tolerance 1e-06

Thermal diffusivity = diffusivity [0 2 -1 0 0 0 0] 0.3 m2/s
debug : BCsample = 2.73023

Time = 0.2 s
DICPCG:  Solving for T, Initial residual = 0.947116, Final residual = 3.90755e-17, No Iterations 1

Time = 0.4 s
DICPCG:  Solving for T, Initial residual = 0.204354, Final residual = 1.61433e-16, No Iterations 1

Time = 0.6 s
DICPCG:  Solving for T, Initial residual = 0.0398697, Final residual = 1.19116e-16, No Iterations 1

Time = 0.8 s
DICPCG:  Solving for T, Initial residual = 0.0287448, Final residual = 8.87377e-17, No Iterations 1

Time = 1 s
DICPCG:  Solving for T, Initial residual = 0.0222722, Final residual = 7.7477e-17, No Iterations 1
************************************************

Projecting sample 24

debug : timeReset, start = 0, index = 0, endTime = 1

SIMPLE: convergence criteria
    field T	 tolerance 1e-06
    field lambda	 tolerance 1e-06
    field deltaT	 tolerance 1e-06

Thermal diffusivity = diffusivity [0 2 -1 0 0 0 0] 0.3 m2/s
debug : BCsample = 2.91192

Time = 0.2 s
DICPCG:  Solving for T, Initial residual = 0.928185, Final residual = 2.23407e-16, No Iterations 1

Time = 0.4 s
DICPCG:  Solving for T, Initial residual = 0.175844, Final residual = 1.29803e-16, No Iterations 1

Time = 0.6 s
DICPCG:  Solving for T, Initial residual = 0.0389409, Final residual = 1.08348e-16, No Iterations 1

Time = 0.8 s
DICPCG:  Solving for T, Initial residual = 0.0283452, Final residual = 9.98563e-17, No Iterations 1

Time = 1 s
DICPCG:  Solving for T, Initial residual = 0.0217792, Final residual = 5.65512e-17, No Iterations 1
************************************************

Projecting sample 25

debug : timeReset, start = 0, index = 0, endTime = 1

SIMPLE: convergence criteria
    field T	 tolerance 1e-06
    field lambda	 tolerance 1e-06
    field deltaT	 tolerance 1e-06

Thermal diffusivity = diffusivity [0 2 -1 0 0 0 0] 0.3 m2/s
debug : BCsample = -1.20495

Time = 0.2 s
DICPCG:  Solving for T, Initial residual = 0.969806, Final residual = 7.39347e-17, No Iterations 1

Time = 0.4 s
DICPCG:  Solving for T, Initial residual = 0.510296, Final residual = 5.64197e-16, No Iterations 1

Time = 0.6 s
DICPCG:  Solving for T, Initial residual = 0.184754, Final residual = 5.39985e-16, No Iterations 1

Time = 0.8 s
DICPCG:  Solving for T, Initial residual = 0.0863592, Final residual = 2.70301e-16, No Iterations 1

Time = 1 s
DICPCG:  Solving for T, Initial residual = 0.052853, Final residual = 1.70603e-16, No Iterations 1
************************************************

Projecting sample 26

debug : timeReset, start = 0, index = 0, endTime = 1

SIMPLE: convergence criteria
    field T	 tolerance 1e-06
    field lambda	 tolerance 1e-06
    field deltaT	 tolerance 1e-06

Thermal diffusivity = diffusivity [0 2 -1 0 0 0 0] 0.3 m2/s
debug : BCsample = -1.00098

Time = 0.2 s
DICPCG:  Solving for T, Initial residual = 0.934882, Final residual = 1.51319e-16, No Iterations 1

Time = 0.4 s
DICPCG:  Solving for T, Initial residual = 0.190412, Final residual = 8.08839e-17, No Iterations 1

Time = 0.6 s
DICPCG:  Solving for T, Initial residual = 0.0180133, Final residual = 4.14857e-17, No Iterations 1

Time = 0.8 s
DICPCG:  Solving for T, Initial residual = 0.00925752, Final residual = 3.57111e-17, No Iterations 1

Time = 1 s
DICPCG:  Solving for T, Initial residual = 0.00742901, Final residual = 2.34859e-17, No Iterations 1
************************************************

Projecting sample 27

debug : timeReset, start = 0, index = 0, endTime = 1

SIMPLE: convergence criteria
    field T	 tolerance 1e-06
    field lambda	 tolerance 1e-06
    field deltaT	 tolerance 1e-06

Thermal diffusivity = diffusivity [0 2 -1 0 0 0 0] 0.3 m2/s
debug : BCsample = 0.13229

Time = 0.2 s
DICPCG:  Solving for T, Initial residual = 0.97446, Final residual = 6.26882e-17, No Iterations 1

Time = 0.4 s
DICPCG:  Solving for T, Initial residual = 0.740795, Final residual = 2.25579e-16, No Iterations 1

Time = 0.6 s
DICPCG:  Solving for T, Initial residual = 0.342959, Final residual = 3.23778e-16, No Iterations 1

Time = 0.8 s
DICPCG:  Solving for T, Initial residual = 0.204309, Final residual = 3.88653e-16, No Iterations 1

Time = 1 s
DICPCG:  Solving for T, Initial residual = 0.0798886, Final residual = 3.0342e-16, No Iterations 1
************************************************

Projecting sample 28

debug : timeReset, start = 0, index = 0, endTime = 1

SIMPLE: convergence criteria
    field T	 tolerance 1e-06
    field lambda	 tolerance 1e-06
    field deltaT	 tolerance 1e-06

Thermal diffusivity = diffusivity [0 2 -1 0 0 0 0] 0.3 m2/s
debug : BCsample = -1.94546

Time = 0.2 s
DICPCG:  Solving for T, Initial residual = 0.95938, Final residual = 7.26325e-17, No Iterations 1

Time = 0.4 s
DICPCG:  Solving for T, Initial residual = 0.663451, Final residual = 7.46689e-16, No Iterations 1

Time = 0.6 s
DICPCG:  Solving for T, Initial residual = 0.12597, Final residual = 3.07632e-16, No Iterations 1

Time = 0.8 s
DICPCG:  Solving for T, Initial residual = 0.0644095, Final residual = 1.94326e-16, No Iterations 1

Time = 1 s
DICPCG:  Solving for T, Initial residual = 0.0436817, Final residual = 1.35172e-16, No Iterations 1
************************************************

Projecting sample 29

debug : timeReset, start = 0, index = 0, endTime = 1

SIMPLE: convergence criteria
    field T	 tolerance 1e-06
    field lambda	 tolerance 1e-06
    field deltaT	 tolerance 1e-06

Thermal diffusivity = diffusivity [0 2 -1 0 0 0 0] 0.3 m2/s
debug : BCsample = -6.21222

Time = 0.2 s
DICPCG:  Solving for T, Initial residual = 0.931882, Final residual = 1.2747e-16, No Iterations 1

Time = 0.4 s
DICPCG:  Solving for T, Initial residual = 0.224456, Final residual = 4.74504e-16, No Iterations 1

Time = 0.6 s
DICPCG:  Solving for T, Initial residual = 0.0795779, Final residual = 1.69994e-16, No Iterations 1

Time = 0.8 s
DICPCG:  Solving for T, Initial residual = 0.0498405, Final residual = 1.69774e-16, No Iterations 1

Time = 1 s
DICPCG:  Solving for T, Initial residual = 0.0351298, Final residual = 1.40441e-16, No Iterations 1
************************************************

Projecting sample 30

debug : timeReset, start = 0, index = 0, endTime = 1

SIMPLE: convergence criteria
    field T	 tolerance 1e-06
    field lambda	 tolerance 1e-06
    field deltaT	 tolerance 1e-06

Thermal diffusivity = diffusivity [0 2 -1 0 0 0 0] 0.3 m2/s
debug : BCsample = -2.48174

Time = 0.2 s
DICPCG:  Solving for T, Initial residual = 0.964231, Final residual = 2.19844e-16, No Iterations 1

Time = 0.4 s
DICPCG:  Solving for T, Initial residual = 0.425074, Final residual = 6.90149e-16, No Iterations 1

Time = 0.6 s
DICPCG:  Solving for T, Initial residual = 0.097971, Final residual = 3.16205e-16, No Iterations 1

Time = 0.8 s
DICPCG:  Solving for T, Initial residual = 0.0561734, Final residual = 1.75488e-16, No Iterations 1

Time = 1 s
DICPCG:  Solving for T, Initial residual = 0.0379445, Final residual = 1.35596e-16, No Iterations 1
************************************************

Projecting sample 31

debug : timeReset, start = 0, index = 0, endTime = 1

SIMPLE: convergence criteria
    field T	 tolerance 1e-06
    field lambda	 tolerance 1e-06
    field deltaT	 tolerance 1e-06

Thermal diffusivity = diffusivity [0 2 -1 0 0 0 0] 0.3 m2/s
debug : BCsample = 2.75077

Time = 0.2 s
DICPCG:  Solving for T, Initial residual = 0.960673, Final residual = 8.08995e-17, No Iterations 1

Time = 0.4 s
DICPCG:  Solving for T, Initial residual = 0.200994, Final residual = 2.17107e-16, No Iterations 1

Time = 0.6 s
DICPCG:  Solving for T, Initial residual = 0.0441633, Final residual = 1.51724e-16, No Iterations 1

Time = 0.8 s
DICPCG:  Solving for T, Initial residual = 0.0311896, Final residual = 8.69118e-17, No Iterations 1

Time = 1 s
DICPCG:  Solving for T, Initial residual = 0.0234985, Final residual = 6.53922e-17, No Iterations 1
************************************************

Projecting sample 32

debug : timeReset, start = 0, index = 0, endTime = 1

SIMPLE: convergence criteria
    field T	 tolerance 1e-06
    field lambda	 tolerance 1e-06
    field deltaT	 tolerance 1e-06

Thermal diffusivity = diffusivity [0 2 -1 0 0 0 0] 0.3 m2/s
debug : BCsample = -3.54811

Time = 0.2 s
DICPCG:  Solving for T, Initial residual = 0.926198, Final residual = 9.36051e-17, No Iterations 1

Time = 0.4 s
DICPCG:  Solving for T, Initial residual = 0.524539, Final residual = 7.71128e-16, No Iterations 1

Time = 0.6 s
DICPCG:  Solving for T, Initial residual = 0.112, Final residual = 3.34149e-16, No Iterations 1

Time = 0.8 s
DICPCG:  Solving for T, Initial residual = 0.0630546, Final residual = 2.02109e-16, No Iterations 1

Time = 1 s
DICPCG:  Solving for T, Initial residual = 0.0422375, Final residual = 9.20265e-17, No Iterations 1
************************************************

Projecting sample 33

debug : timeReset, start = 0, index = 0, endTime = 1

SIMPLE: convergence criteria
    field T	 tolerance 1e-06
    field lambda	 tolerance 1e-06
    field deltaT	 tolerance 1e-06

Thermal diffusivity = diffusivity [0 2 -1 0 0 0 0] 0.3 m2/s
debug : BCsample = 2.771

Time = 0.2 s
DICPCG:  Solving for T, Initial residual = 0.916523, Final residual = 6.72086e-17, No Iterations 1

Time = 0.4 s
DICPCG:  Solving for T, Initial residual = 0.149872, Final residual = 1.30034e-16, No Iterations 1

Time = 0.6 s
DICPCG:  Solving for T, Initial residual = 0.0221618, Final residual = 7.0437e-17, No Iterations 1

Time = 0.8 s
DICPCG:  Solving for T, Initial residual = 0.0174143, Final residual = 5.14818e-17, No Iterations 1

Time = 1 s
DICPCG:  Solving for T, Initial residual = 0.0141949, Final residual = 4.72179e-17, No Iterations 1
************************************************

Projecting sample 34

debug : timeReset, start = 0, index = 0, endTime = 1

SIMPLE: convergence criteria
    field T	 tolerance 1e-06
    field lambda	 tolerance 1e-06
    field deltaT	 tolerance 1e-06

Thermal diffusivity = diffusivity [0 2 -1 0 0 0 0] 0.3 m2/s
debug : BCsample = -2.67805

Time = 0.2 s
DICPCG:  Solving for T, Initial residual = 0.976995, Final residual = 5.10424e-17, No Iterations 1

Time = 0.4 s
DICPCG:  Solving for T, Initial residual = 0.438184, Final residual = 4.34021e-16, No Iterations 1

Time = 0.6 s
DICPCG:  Solving for T, Initial residual = 0.0737995, Final residual = 2.48935e-16, No Iterations 1

Time = 0.8 s
DICPCG:  Solving for T, Initial residual = 0.0480075, Final residual = 1.43891e-16, No Iterations 1

Time = 1 s
DICPCG:  Solving for T, Initial residual = 0.0345212, Final residual = 1.3348e-16, No Iterations 1
************************************************

Projecting sample 35

debug : timeReset, start = 0, index = 0, endTime = 1

SIMPLE: convergence criteria
    field T	 tolerance 1e-06
    field lambda	 tolerance 1e-06
    field deltaT	 tolerance 1e-06

Thermal diffusivity = diffusivity [0 2 -1 0 0 0 0] 0.3 m2/s
debug : BCsample = -6.80861

Time = 0.2 s
DICPCG:  Solving for T, Initial residual = 0.949407, Final residual = 1.94658e-16, No Iterations 1

Time = 0.4 s
DICPCG:  Solving for T, Initial residual = 0.172161, Final residual = 2.38379e-16, No Iterations 1

Time = 0.6 s
DICPCG:  Solving for T, Initial residual = 0.0639657, Final residual = 2.58478e-16, No Iterations 1

Time = 0.8 s
DICPCG:  Solving for T, Initial residual = 0.0421785, Final residual = 1.49059e-16, No Iterations 1

Time = 1 s
DICPCG:  Solving for T, Initial residual = 0.0305149, Final residual = 8.38956e-17, No Iterations 1
************************************************

Projecting sample 36

debug : timeReset, start = 0, index = 0, endTime = 1

SIMPLE: convergence criteria
    field T	 tolerance 1e-06
    field lambda	 tolerance 1e-06
    field deltaT	 tolerance 1e-06

Thermal diffusivity = diffusivity [0 2 -1 0 0 0 0] 0.3 m2/s
debug : BCsample = -1.68151

Time = 0.2 s
DICPCG:  Solving for T, Initial residual = 0.969828, Final residual = 7.28219e-17, No Iterations 1

Time = 0.4 s
DICPCG:  Solving for T, Initial residual = 0.350102, Final residual = 2.21205e-16, No Iterations 1

Time = 0.6 s
DICPCG:  Solving for T, Initial residual = 0.0774277, Final residual = 1.97829e-16, No Iterations 1

Time = 0.8 s
DICPCG:  Solving for T, Initial residual = 0.0384498, Final residual = 1.13246e-16, No Iterations 1

Time = 1 s
DICPCG:  Solving for T, Initial residual = 0.0287991, Final residual = 1.02821e-16, No Iterations 1
************************************************

Projecting sample 37

debug : timeReset, start = 0, index = 0, endTime = 1

SIMPLE: convergence criteria
    field T	 tolerance 1e-06
    field lambda	 tolerance 1e-06
    field deltaT	 tolerance 1e-06

Thermal diffusivity = diffusivity [0 2 -1 0 0 0 0] 0.3 m2/s
debug : BCsample = -0.942851

Time = 0.2 s
DICPCG:  Solving for T, Initial residual = 0.935279, Final residual = 2.0013e-16, No Iterations 1

Time = 0.4 s
DICPCG:  Solving for T, Initial residual = 0.418944, Final residual = 1.46066e-16, No Iterations 1

Time = 0.6 s
DICPCG:  Solving for T, Initial residual = 0.152198, Final residual = 3.56925e-16, No Iterations 1

Time = 0.8 s
DICPCG:  Solving for T, Initial residual = 0.289842, Final residual = 7.60387e-16, No Iterations 1

Time = 1 s
DICPCG:  Solving for T, Initial residual = 0.111321, Final residual = 3.7053e-16, No Iterations 1
************************************************

Projecting sample 38

debug : timeReset, start = 0, index = 0, endTime = 1

SIMPLE: convergence criteria
    field T	 tolerance 1e-06
    field lambda	 tolerance 1e-06
    field deltaT	 tolerance 1e-06

Thermal diffusivity = diffusivity [0 2 -1 0 0 0 0] 0.3 m2/s
debug : BCsample = 0.622155

Time = 0.2 s
DICPCG:  Solving for T, Initial residual = 0.955131, Final residual = 1.85229e-16, No Iterations 1

Time = 0.4 s
DICPCG:  Solving for T, Initial residual = 0.183076, Final residual = 7.03227e-17, No Iterations 1

Time = 0.6 s
DICPCG:  Solving for T, Initial residual = 0.0136576, Final residual = 1.66635e-17, No Iterations 1

Time = 0.8 s
DICPCG:  Solving for T, Initial residual = 0.00524512, Final residual = 1.81719e-17, No Iterations 1

Time = 1 s
DICPCG:  Solving for T, Initial residual = 0.00325914, Final residual = 1.14851e-17, No Iterations 1
************************************************

Projecting sample 39

debug : timeReset, start = 0, index = 0, endTime = 1

SIMPLE: convergence criteria
    field T	 tolerance 1e-06
    field lambda	 tolerance 1e-06
    field deltaT	 tolerance 1e-06

Thermal diffusivity = diffusivity [0 2 -1 0 0 0 0] 0.3 m2/s
debug : BCsample = -0.245219

Time = 0.2 s
DICPCG:  Solving for T, Initial residual = 0.970993, Final residual = 2.20529e-16, No Iterations 1

Time = 0.4 s
DICPCG:  Solving for T, Initial residual = 0.791559, Final residual = 3.85286e-16, No Iterations 1

Time = 0.6 s
DICPCG:  Solving for T, Initial residual = 0.0957685, Final residual = 1.99495e-16, No Iterations 1

Time = 0.8 s
DICPCG:  Solving for T, Initial residual = 0.0437515, Final residual = 1.28071e-16, No Iterations 1

Time = 1 s
DICPCG:  Solving for T, Initial residual = 0.0290066, Final residual = 4.43306e-17, No Iterations 1
************************************************

Projecting sample 40

debug : timeReset, start = 0, index = 0, endTime = 1

SIMPLE: convergence criteria
    field T	 tolerance 1e-06
    field lambda	 tolerance 1e-06
    field deltaT	 tolerance 1e-06

Thermal diffusivity = diffusivity [0 2 -1 0 0 0 0] 0.3 m2/s
debug : BCsample = -1.22697

Time = 0.2 s
DICPCG:  Solving for T, Initial residual = 0.971522, Final residual = 2.06942e-16, No Iterations 1

Time = 0.4 s
DICPCG:  Solving for T, Initial residual = 0.414967, Final residual = 6.20169e-16, No Iterations 1

Time = 0.6 s
DICPCG:  Solving for T, Initial residual = 0.20896, Final residual = 8.20428e-16, No Iterations 1

Time = 0.8 s
DICPCG:  Solving for T, Initial residual = 0.137867, Final residual = 4.4156e-16, No Iterations 1

Time = 1 s
DICPCG:  Solving for T, Initial residual = 0.0740541, Final residual = 2.29841e-16, No Iterations 1
************************************************

Projecting sample 41

debug : timeReset, start = 0, index = 0, endTime = 1

SIMPLE: convergence criteria
    field T	 tolerance 1e-06
    field lambda	 tolerance 1e-06
    field deltaT	 tolerance 1e-06

Thermal diffusivity = diffusivity [0 2 -1 0 0 0 0] 0.3 m2/s
debug : BCsample = -1.15023

Time = 0.2 s
DICPCG:  Solving for T, Initial residual = 0.94686, Final residual = 1.68332e-16, No Iterations 1

Time = 0.4 s
DICPCG:  Solving for T, Initial residual = 0.36872, Final residual = 2.65509e-16, No Iterations 1

Time = 0.6 s
DICPCG:  Solving for T, Initial residual = 0.042269, Final residual = 1.23902e-16, No Iterations 1

Time = 0.8 s
DICPCG:  Solving for T, Initial residual = 0.0297251, Final residual = 1.11223e-16, No Iterations 1

Time = 1 s
DICPCG:  Solving for T, Initial residual = 0.0229755, Final residual = 6.67335e-17, No Iterations 1
************************************************

Projecting sample 42

debug : timeReset, start = 0, index = 0, endTime = 1

SIMPLE: convergence criteria
    field T	 tolerance 1e-06
    field lambda	 tolerance 1e-06
    field deltaT	 tolerance 1e-06

Thermal diffusivity = diffusivity [0 2 -1 0 0 0 0] 0.3 m2/s
debug : BCsample = -4.51611

Time = 0.2 s
DICPCG:  Solving for T, Initial residual = 0.949271, Final residual = 5.23789e-17, No Iterations 1

Time = 0.4 s
DICPCG:  Solving for T, Initial residual = 0.47709, Final residual = 6.32672e-16, No Iterations 1

Time = 0.6 s
DICPCG:  Solving for T, Initial residual = 0.10369, Final residual = 2.46393e-16, No Iterations 1

Time = 0.8 s
DICPCG:  Solving for T, Initial residual = 0.0615693, Final residual = 1.84779e-16, No Iterations 1

Time = 1 s
DICPCG:  Solving for T, Initial residual = 0.0417723, Final residual = 1.32296e-16, No Iterations 1
************************************************

Projecting sample 43

debug : timeReset, start = 0, index = 0, endTime = 1

SIMPLE: convergence criteria
    field T	 tolerance 1e-06
    field lambda	 tolerance 1e-06
    field deltaT	 tolerance 1e-06

Thermal diffusivity = diffusivity [0 2 -1 0 0 0 0] 0.3 m2/s
debug : BCsample = -0.230922

Time = 0.2 s
DICPCG:  Solving for T, Initial residual = 0.954675, Final residual = 7.5433e-17, No Iterations 1

Time = 0.4 s
DICPCG:  Solving for T, Initial residual = 0.684283, Final residual = 2.34253e-16, No Iterations 1

Time = 0.6 s
DICPCG:  Solving for T, Initial residual = 0.41474, Final residual = 6.00171e-16, No Iterations 1

Time = 0.8 s
DICPCG:  Solving for T, Initial residual = 0.119126, Final residual = 3.14995e-16, No Iterations 1

Time = 1 s
DICPCG:  Solving for T, Initial residual = 0.0622166, Final residual = 2.19081e-16, No Iterations 1
************************************************

Projecting sample 44

debug : timeReset, start = 0, index = 0, endTime = 1

SIMPLE: convergence criteria
    field T	 tolerance 1e-06
    field lambda	 tolerance 1e-06
    field deltaT	 tolerance 1e-06

Thermal diffusivity = diffusivity [0 2 -1 0 0 0 0] 0.3 m2/s
debug : BCsample = -1.70399

Time = 0.2 s
DICPCG:  Solving for T, Initial residual = 0.974347, Final residual = 6.29768e-17, No Iterations 1

Time = 0.4 s
DICPCG:  Solving for T, Initial residual = 0.435057, Final residual = 2.38328e-16, No Iterations 1

Time = 0.6 s
DICPCG:  Solving for T, Initial residual = 0.218265, Final residual = 5.4635e-16, No Iterations 1

Time = 0.8 s
DICPCG:  Solving for T, Initial residual = 0.143574, Final residual = 4.58818e-16, No Iterations 1

Time = 1 s
DICPCG:  Solving for T, Initial residual = 0.0755752, Final residual = 2.18823e-16, No Iterations 1
************************************************

Projecting sample 45

debug : timeReset, start = 0, index = 0, endTime = 1

SIMPLE: convergence criteria
    field T	 tolerance 1e-06
    field lambda	 tolerance 1e-06
    field deltaT	 tolerance 1e-06

Thermal diffusivity = diffusivity [0 2 -1 0 0 0 0] 0.3 m2/s
debug : BCsample = -0.656907

Time = 0.2 s
DICPCG:  Solving for T, Initial residual = 0.972869, Final residual = 5.59358e-17, No Iterations 1

Time = 0.4 s
DICPCG:  Solving for T, Initial residual = 0.229101, Final residual = 2.14461e-16, No Iterations 1

Time = 0.6 s
DICPCG:  Solving for T, Initial residual = 0.066486, Final residual = 2.19257e-16, No Iterations 1

Time = 0.8 s
DICPCG:  Solving for T, Initial residual = 0.0806541, Final residual = 2.18065e-16, No Iterations 1

Time = 1 s
DICPCG:  Solving for T, Initial residual = 0.107892, Final residual = 3.60249e-16, No Iterations 1
************************************************

Projecting sample 46

debug : timeReset, start = 0, index = 0, endTime = 1

SIMPLE: convergence criteria
    field T	 tolerance 1e-06
    field lambda	 tolerance 1e-06
    field deltaT	 tolerance 1e-06

Thermal diffusivity = diffusivity [0 2 -1 0 0 0 0] 0.3 m2/s
debug : BCsample = 5.59522

Time = 0.2 s
DICPCG:  Solving for T, Initial residual = 0.971542, Final residual = 9.08967e-17, No Iterations 1

Time = 0.4 s
DICPCG:  Solving for T, Initial residual = 0.199897, Final residual = 3.25271e-16, No Iterations 1

Time = 0.6 s
DICPCG:  Solving for T, Initial residual = 0.0572984, Final residual = 2.05912e-16, No Iterations 1

Time = 0.8 s
DICPCG:  Solving for T, Initial residual = 0.0397544, Final residual = 1.02415e-16, No Iterations 1

Time = 1 s
DICPCG:  Solving for T, Initial residual = 0.0294316, Final residual = 1.36607e-16, No Iterations 1
************************************************

Projecting sample 47

debug : timeReset, start = 0, index = 0, endTime = 1

SIMPLE: convergence criteria
    field T	 tolerance 1e-06
    field lambda	 tolerance 1e-06
    field deltaT	 tolerance 1e-06

Thermal diffusivity = diffusivity [0 2 -1 0 0 0 0] 0.3 m2/s
debug : BCsample = -2.10908

Time = 0.2 s
DICPCG:  Solving for T, Initial residual = 0.922936, Final residual = 1.04274e-16, No Iterations 1

Time = 0.4 s
DICPCG:  Solving for T, Initial residual = 0.276045, Final residual = 2.99599e-16, No Iterations 1

Time = 0.6 s
DICPCG:  Solving for T, Initial residual = 0.051823, Final residual = 1.47416e-16, No Iterations 1

Time = 0.8 s
DICPCG:  Solving for T, Initial residual = 0.0313605, Final residual = 1.20711e-16, No Iterations 1

Time = 1 s
DICPCG:  Solving for T, Initial residual = 0.0243334, Final residual = 9.96475e-17, No Iterations 1
************************************************

Projecting sample 48

debug : timeReset, start = 0, index = 0, endTime = 1

SIMPLE: convergence criteria
    field T	 tolerance 1e-06
    field lambda	 tolerance 1e-06
    field deltaT	 tolerance 1e-06

Thermal diffusivity = diffusivity [0 2 -1 0 0 0 0] 0.3 m2/s
debug : BCsample = 2.20266

Time = 0.2 s
DICPCG:  Solving for T, Initial residual = 0.971002, Final residual = 9.04986e-17, No Iterations 1

Time = 0.4 s
DICPCG:  Solving for T, Initial residual = 0.207671, Final residual = 3.57073e-16, No Iterations 1

Time = 0.6 s
DICPCG:  Solving for T, Initial residual = 0.0386874, Final residual = 5.95578e-17, No Iterations 1

Time = 0.8 s
DICPCG:  Solving for T, Initial residual = 0.0277485, Final residual = 8.73769e-17, No Iterations 1

Time = 1 s
DICPCG:  Solving for T, Initial residual = 0.0219824, Final residual = 8.39056e-17, No Iterations 1
************************************************

Projecting sample 49

debug : timeReset, start = 0, index = 0, endTime = 1

SIMPLE: convergence criteria
    field T	 tolerance 1e-06
    field lambda	 tolerance 1e-06
    field deltaT	 tolerance 1e-06

Thermal diffusivity = diffusivity [0 2 -1 0 0 0 0] 0.3 m2/s
debug : BCsample = 4.22721

Time = 0.2 s
DICPCG:  Solving for T, Initial residual = 0.946901, Final residual = 1.97427e-16, No Iterations 1

Time = 0.4 s
DICPCG:  Solving for T, Initial residual = 0.224587, Final residual = 2.55929e-16, No Iterations 1

Time = 0.6 s
DICPCG:  Solving for T, Initial residual = 0.0556073, Final residual = 1.55576e-16, No Iterations 1

Time = 0.8 s
DICPCG:  Solving for T, Initial residual = 0.0379678, Final residual = 1.16964e-16, No Iterations 1

Time = 1 s
DICPCG:  Solving for T, Initial residual = 0.0283582, Final residual = 1.03482e-16, No Iterations 1
************************************************

Projecting sample 50

debug : timeReset, start = 0, index = 0, endTime = 1

SIMPLE: convergence criteria
    field T	 tolerance 1e-06
    field lambda	 tolerance 1e-06
    field deltaT	 tolerance 1e-06

Thermal diffusivity = diffusivity [0 2 -1 0 0 0 0] 0.3 m2/s
debug : BCsample = 1.42318

Time = 0.2 s
DICPCG:  Solving for T, Initial residual = 0.971082, Final residual = 1.40464e-16, No Iterations 1

Time = 0.4 s
DICPCG:  Solving for T, Initial residual = 0.699774, Final residual = 7.35722e-16, No Iterations 1

Time = 0.6 s
DICPCG:  Solving for T, Initial residual = 0.107647, Final residual = 3.6537e-16, No Iterations 1

Time = 0.8 s
DICPCG:  Solving for T, Initial residual = 0.0611307, Final residual = 2.69082e-16, No Iterations 1

Time = 1 s
DICPCG:  Solving for T, Initial residual = 0.0418978, Final residual = 1.48375e-16, No Iterations 1
************************************************

Projecting sample 51

debug : timeReset, start = 0, index = 0, endTime = 1

SIMPLE: convergence criteria
    field T	 tolerance 1e-06
    field lambda	 tolerance 1e-06
    field deltaT	 tolerance 1e-06

Thermal diffusivity = diffusivity [0 2 -1 0 0 0 0] 0.3 m2/s
debug : BCsample = -0.781252

Time = 0.2 s
DICPCG:  Solving for T, Initial residual = 0.968472, Final residual = 1.22022e-16, No Iterations 1

Time = 0.4 s
DICPCG:  Solving for T, Initial residual = 0.578762, Final residual = 3.14349e-16, No Iterations 1

Time = 0.6 s
DICPCG:  Solving for T, Initial residual = 0.0708167, Final residual = 2.5318e-16, No Iterations 1

Time = 0.8 s
DICPCG:  Solving for T, Initial residual = 0.0409949, Final residual = 1.77951e-16, No Iterations 1

Time = 1 s
DICPCG:  Solving for T, Initial residual = 0.0301996, Final residual = 8.76818e-17, No Iterations 1
************************************************

Projecting sample 52

debug : timeReset, start = 0, index = 0, endTime = 1

SIMPLE: convergence criteria
    field T	 tolerance 1e-06
    field lambda	 tolerance 1e-06
    field deltaT	 tolerance 1e-06

Thermal diffusivity = diffusivity [0 2 -1 0 0 0 0] 0.3 m2/s
debug : BCsample = -3.27054

Time = 0.2 s
DICPCG:  Solving for T, Initial residual = 0.976718, Final residual = 4.96214e-17, No Iterations 1

Time = 0.4 s
DICPCG:  Solving for T, Initial residual = 0.335089, Final residual = 3.74547e-16, No Iterations 1

Time = 0.6 s
DICPCG:  Solving for T, Initial residual = 0.0750242, Final residual = 2.33528e-16, No Iterations 1

Time = 0.8 s
DICPCG:  Solving for T, Initial residual = 0.0492661, Final residual = 1.7828e-16, No Iterations 1

Time = 1 s
DICPCG:  Solving for T, Initial residual = 0.0350939, Final residual = 1.17958e-16, No Iterations 1
************************************************

Projecting sample 53

debug : timeReset, start = 0, index = 0, endTime = 1

SIMPLE: convergence criteria
    field T	 tolerance 1e-06
    field lambda	 tolerance 1e-06
    field deltaT	 tolerance 1e-06

Thermal diffusivity = diffusivity [0 2 -1 0 0 0 0] 0.3 m2/s
debug : BCsample = 3.40665

Time = 0.2 s
DICPCG:  Solving for T, Initial residual = 0.976337, Final residual = 1.61216e-16, No Iterations 1

Time = 0.4 s
DICPCG:  Solving for T, Initial residual = 0.258163, Final residual = 2.78605e-16, No Iterations 1

Time = 0.6 s
DICPCG:  Solving for T, Initial residual = 0.0542385, Final residual = 1.62099e-16, No Iterations 1

Time = 0.8 s
DICPCG:  Solving for T, Initial residual = 0.0377519, Final residual = 1.29088e-16, No Iterations 1

Time = 1 s
DICPCG:  Solving for T, Initial residual = 0.0280033, Final residual = 9.61179e-17, No Iterations 1
************************************************

Projecting sample 54

debug : timeReset, start = 0, index = 0, endTime = 1

SIMPLE: convergence criteria
    field T	 tolerance 1e-06
    field lambda	 tolerance 1e-06
    field deltaT	 tolerance 1e-06

Thermal diffusivity = diffusivity [0 2 -1 0 0 0 0] 0.3 m2/s
debug : BCsample = -2.08987

Time = 0.2 s
DICPCG:  Solving for T, Initial residual = 0.947921, Final residual = 7.68623e-17, No Iterations 1

Time = 0.4 s
DICPCG:  Solving for T, Initial residual = 0.634672, Final residual = 6.0113e-16, No Iterations 1

Time = 0.6 s
DICPCG:  Solving for T, Initial residual = 0.127641, Final residual = 4.65649e-16, No Iterations 1

Time = 0.8 s
DICPCG:  Solving for T, Initial residual = 0.0666197, Final residual = 1.52812e-16, No Iterations 1

Time = 1 s
DICPCG:  Solving for T, Initial residual = 0.0438801, Final residual = 1.40787e-16, No Iterations 1
************************************************

Projecting sample 55

debug : timeReset, start = 0, index = 0, endTime = 1

SIMPLE: convergence criteria
    field T	 tolerance 1e-06
    field lambda	 tolerance 1e-06
    field deltaT	 tolerance 1e-06

Thermal diffusivity = diffusivity [0 2 -1 0 0 0 0] 0.3 m2/s
debug : BCsample = 0.509795

Time = 0.2 s
DICPCG:  Solving for T, Initial residual = 0.959033, Final residual = 1.01123e-16, No Iterations 1

Time = 0.4 s
DICPCG:  Solving for T, Initial residual = 0.280493, Final residual = 1.8614e-16, No Iterations 1

Time = 0.6 s
DICPCG:  Solving for T, Initial residual = 0.032067, Final residual = 1.83692e-17, No Iterations 1

Time = 0.8 s
DICPCG:  Solving for T, Initial residual = 0.00503932, Final residual = 5.44105e-18, No Iterations 1

Time = 1 s
DICPCG:  Solving for T, Initial residual = 0.00121784, Final residual = 3.25448e-18, No Iterations 1
************************************************

Projecting sample 56

debug : timeReset, start = 0, index = 0, endTime = 1

SIMPLE: convergence criteria
    field T	 tolerance 1e-06
    field lambda	 tolerance 1e-06
    field deltaT	 tolerance 1e-06

Thermal diffusivity = diffusivity [0 2 -1 0 0 0 0] 0.3 m2/s
debug : BCsample = -6.78854

Time = 0.2 s
DICPCG:  Solving for T, Initial residual = 0.954182, Final residual = 7.71358e-17, No Iterations 1

Time = 0.4 s
DICPCG:  Solving for T, Initial residual = 0.316414, Final residual = 6.18369e-16, No Iterations 1

Time = 0.6 s
DICPCG:  Solving for T, Initial residual = 0.0975992, Final residual = 2.56463e-16, No Iterations 1

Time = 0.8 s
DICPCG:  Solving for T, Initial residual = 0.0580064, Final residual = 1.822e-16, No Iterations 1

Time = 1 s
DICPCG:  Solving for T, Initial residual = 0.0397195, Final residual = 8.74277e-17, No Iterations 1
************************************************

Projecting sample 57

debug : timeReset, start = 0, index = 0, endTime = 1

SIMPLE: convergence criteria
    field T	 tolerance 1e-06
    field lambda	 tolerance 1e-06
    field deltaT	 tolerance 1e-06

Thermal diffusivity = diffusivity [0 2 -1 0 0 0 0] 0.3 m2/s
debug : BCsample = 5.66939

Time = 0.2 s
DICPCG:  Solving for T, Initial residual = 0.953516, Final residual = 1.19634e-16, No Iterations 1

Time = 0.4 s
DICPCG:  Solving for T, Initial residual = 0.147998, Final residual = 2.91721e-16, No Iterations 1

Time = 0.6 s
DICPCG:  Solving for T, Initial residual = 0.0562794, Final residual = 2.05406e-16, No Iterations 1

Time = 0.8 s
DICPCG:  Solving for T, Initial residual = 0.0391271, Final residual = 1.23338e-16, No Iterations 1

Time = 1 s
DICPCG:  Solving for T, Initial residual = 0.028902, Final residual = 7.82523e-17, No Iterations 1
************************************************

Projecting sample 58

debug : timeReset, start = 0, index = 0, endTime = 1

SIMPLE: convergence criteria
    field T	 tolerance 1e-06
    field lambda	 tolerance 1e-06
    field deltaT	 tolerance 1e-06

Thermal diffusivity = diffusivity [0 2 -1 0 0 0 0] 0.3 m2/s
debug : BCsample = -2.95148

Time = 0.2 s
DICPCG:  Solving for T, Initial residual = 0.973468, Final residual = 8.34782e-17, No Iterations 1

Time = 0.4 s
DICPCG:  Solving for T, Initial residual = 0.38138, Final residual = 3.26855e-16, No Iterations 1

Time = 0.6 s
DICPCG:  Solving for T, Initial residual = 0.173903, Final residual = 5.3834e-16, No Iterations 1

Time = 0.8 s
DICPCG:  Solving for T, Initial residual = 0.0838448, Final residual = 2.96683e-16, No Iterations 1

Time = 1 s
DICPCG:  Solving for T, Initial residual = 0.052623, Final residual = 1.77417e-16, No Iterations 1
************************************************

Projecting sample 59

debug : timeReset, start = 0, index = 0, endTime = 1

SIMPLE: convergence criteria
    field T	 tolerance 1e-06
    field lambda	 tolerance 1e-06
    field deltaT	 tolerance 1e-06

Thermal diffusivity = diffusivity [0 2 -1 0 0 0 0] 0.3 m2/s
debug : BCsample = -3.26653

Time = 0.2 s
DICPCG:  Solving for T, Initial residual = 0.932741, Final residual = 8.84834e-17, No Iterations 1

Time = 0.4 s
DICPCG:  Solving for T, Initial residual = 0.179304, Final residual = 1.87067e-16, No Iterations 1

Time = 0.6 s
DICPCG:  Solving for T, Initial residual = 0.0448093, Final residual = 1.2983e-16, No Iterations 1

Time = 0.8 s
DICPCG:  Solving for T, Initial residual = 0.0325749, Final residual = 9.33893e-17, No Iterations 1

Time = 1 s
DICPCG:  Solving for T, Initial residual = 0.0247944, Final residual = 6.83908e-17, No Iterations 1
************************************************

Projecting sample 60

debug : timeReset, start = 0, index = 0, endTime = 1

SIMPLE: convergence criteria
    field T	 tolerance 1e-06
    field lambda	 tolerance 1e-06
    field deltaT	 tolerance 1e-06

Thermal diffusivity = diffusivity [0 2 -1 0 0 0 0] 0.3 m2/s
debug : BCsample = 2.43658

Time = 0.2 s
DICPCG:  Solving for T, Initial residual = 0.921974, Final residual = 1.77937e-16, No Iterations 1

Time = 0.4 s
DICPCG:  Solving for T, Initial residual = 0.288846, Final residual = 3.69909e-16, No Iterations 1

Time = 0.6 s
DICPCG:  Solving for T, Initial residual = 0.251169, Final residual = 8.73912e-16, No Iterations 1

Time = 0.8 s
DICPCG:  Solving for T, Initial residual = 0.117381, Final residual = 3.73362e-16, No Iterations 1

Time = 1 s
DICPCG:  Solving for T, Initial residual = 0.0664945, Final residual = 2.5108e-16, No Iterations 1
************************************************

Projecting sample 61

debug : timeReset, start = 0, index = 0, endTime = 1

SIMPLE: convergence criteria
    field T	 tolerance 1e-06
    field lambda	 tolerance 1e-06
    field deltaT	 tolerance 1e-06

Thermal diffusivity = diffusivity [0 2 -1 0 0 0 0] 0.3 m2/s
debug : BCsample = 0.141718

Time = 0.2 s
DICPCG:  Solving for T, Initial residual = 0.960661, Final residual = 2.2075e-16, No Iterations 1

Time = 0.4 s
DICPCG:  Solving for T, Initial residual = 0.555299, Final residual = 1.36146e-16, No Iterations 1

Time = 0.6 s
DICPCG:  Solving for T, Initial residual = 0.0648267, Final residual = 7.27158e-17, No Iterations 1

Time = 0.8 s
DICPCG:  Solving for T, Initial residual = 0.0206479, Final residual = 2.38751e-17, No Iterations 1

Time = 1 s
DICPCG:  Solving for T, Initial residual = 0.00869074, Final residual = 1.37735e-17, No Iterations 1
************************************************

Projecting sample 62

debug : timeReset, start = 0, index = 0, endTime = 1

SIMPLE: convergence criteria
    field T	 tolerance 1e-06
    field lambda	 tolerance 1e-06
    field deltaT	 tolerance 1e-06

Thermal diffusivity = diffusivity [0 2 -1 0 0 0 0] 0.3 m2/s
debug : BCsample = -3.69493

Time = 0.2 s
DICPCG:  Solving for T, Initial residual = 0.941543, Final residual = 5.81531e-17, No Iterations 1

Time = 0.4 s
DICPCG:  Solving for T, Initial residual = 0.494928, Final residual = 7.30271e-16, No Iterations 1

Time = 0.6 s
DICPCG:  Solving for T, Initial residual = 0.0949522, Final residual = 3.52358e-16, No Iterations 1

Time = 0.8 s
DICPCG:  Solving for T, Initial residual = 0.0562863, Final residual = 1.31691e-16, No Iterations 1

Time = 1 s
DICPCG:  Solving for T, Initial residual = 0.0388607, Final residual = 9.34401e-17, No Iterations 1
************************************************

Projecting sample 63

debug : timeReset, start = 0, index = 0, endTime = 1

SIMPLE: convergence criteria
    field T	 tolerance 1e-06
    field lambda	 tolerance 1e-06
    field deltaT	 tolerance 1e-06

Thermal diffusivity = diffusivity [0 2 -1 0 0 0 0] 0.3 m2/s
debug : BCsample = 4.68875

Time = 0.2 s
DICPCG:  Solving for T, Initial residual = 0.949797, Final residual = 1.42449e-16, No Iterations 1

Time = 0.4 s
DICPCG:  Solving for T, Initial residual = 0.416083, Final residual = 7.14099e-16, No Iterations 1

Time = 0.6 s
DICPCG:  Solving for T, Initial residual = 0.101408, Final residual = 2.50734e-16, No Iterations 1

Time = 0.8 s
DICPCG:  Solving for T, Initial residual = 0.0604876, Final residual = 2.14296e-16, No Iterations 1

Time = 1 s
DICPCG:  Solving for T, Initial residual = 0.041508, Final residual = 1.57997e-16, No Iterations 1
************************************************

Projecting sample 64

debug : timeReset, start = 0, index = 0, endTime = 1

SIMPLE: convergence criteria
    field T	 tolerance 1e-06
    field lambda	 tolerance 1e-06
    field deltaT	 tolerance 1e-06

Thermal diffusivity = diffusivity [0 2 -1 0 0 0 0] 0.3 m2/s
debug : BCsample = 1.51495

Time = 0.2 s
DICPCG:  Solving for T, Initial residual = 0.968376, Final residual = 9.72406e-17, No Iterations 1

Time = 0.4 s
DICPCG:  Solving for T, Initial residual = 0.263333, Final residual = 1.84996e-16, No Iterations 1

Time = 0.6 s
DICPCG:  Solving for T, Initial residual = 0.0492631, Final residual = 9.05886e-17, No Iterations 1

Time = 0.8 s
DICPCG:  Solving for T, Initial residual = 0.0291493, Final residual = 9.11756e-17, No Iterations 1

Time = 1 s
DICPCG:  Solving for T, Initial residual = 0.0231432, Final residual = 6.0241e-17, No Iterations 1
************************************************

Projecting sample 65

debug : timeReset, start = 0, index = 0, endTime = 1

SIMPLE: convergence criteria
    field T	 tolerance 1e-06
    field lambda	 tolerance 1e-06
    field deltaT	 tolerance 1e-06

Thermal diffusivity = diffusivity [0 2 -1 0 0 0 0] 0.3 m2/s
debug : BCsample = 5.61073

Time = 0.2 s
DICPCG:  Solving for T, Initial residual = 0.973941, Final residual = 4.69156e-17, No Iterations 1

Time = 0.4 s
DICPCG:  Solving for T, Initial residual = 0.155472, Final residual = 1.92396e-16, No Iterations 1

Time = 0.6 s
DICPCG:  Solving for T, Initial residual = 0.0517707, Final residual = 1.99445e-16, No Iterations 1

Time = 0.8 s
DICPCG:  Solving for T, Initial residual = 0.0368161, Final residual = 1.11515e-16, No Iterations 1

Time = 1 s
DICPCG:  Solving for T, Initial residual = 0.0276059, Final residual = 8.26068e-17, No Iterations 1
************************************************

Projecting sample 66

debug : timeReset, start = 0, index = 0, endTime = 1

SIMPLE: convergence criteria
    field T	 tolerance 1e-06
    field lambda	 tolerance 1e-06
    field deltaT	 tolerance 1e-06

Thermal diffusivity = diffusivity [0 2 -1 0 0 0 0] 0.3 m2/s
debug : BCsample = 3.01471

Time = 0.2 s
DICPCG:  Solving for T, Initial residual = 0.962089, Final residual = 8.27267e-17, No Iterations 1

Time = 0.4 s
DICPCG:  Solving for T, Initial residual = 0.554914, Final residual = 7.79494e-16, No Iterations 1

Time = 0.6 s
DICPCG:  Solving for T, Initial residual = 0.114675, Final residual = 5.12521e-16, No Iterations 1

Time = 0.8 s
DICPCG:  Solving for T, Initial residual = 0.0595712, Final residual = 1.93341e-16, No Iterations 1

Time = 1 s
DICPCG:  Solving for T, Initial residual = 0.0415388, Final residual = 1.34551e-16, No Iterations 1
************************************************

Projecting sample 67

debug : timeReset, start = 0, index = 0, endTime = 1

SIMPLE: convergence criteria
    field T	 tolerance 1e-06
    field lambda	 tolerance 1e-06
    field deltaT	 tolerance 1e-06

Thermal diffusivity = diffusivity [0 2 -1 0 0 0 0] 0.3 m2/s
debug : BCsample = 0.618371

Time = 0.2 s
DICPCG:  Solving for T, Initial residual = 0.951835, Final residual = 6.21984e-17, No Iterations 1

Time = 0.4 s
DICPCG:  Solving for T, Initial residual = 0.379933, Final residual = 2.32817e-16, No Iterations 1

Time = 0.6 s
DICPCG:  Solving for T, Initial residual = 0.0470733, Final residual = 7.29988e-17, No Iterations 1

Time = 0.8 s
DICPCG:  Solving for T, Initial residual = 0.0198557, Final residual = 5.25003e-17, No Iterations 1

Time = 1 s
DICPCG:  Solving for T, Initial residual = 0.0156402, Final residual = 4.58516e-17, No Iterations 1
************************************************

Projecting sample 68

debug : timeReset, start = 0, index = 0, endTime = 1

SIMPLE: convergence criteria
    field T	 tolerance 1e-06
    field lambda	 tolerance 1e-06
    field deltaT	 tolerance 1e-06

Thermal diffusivity = diffusivity [0 2 -1 0 0 0 0] 0.3 m2/s
debug : BCsample = 0.608983

Time = 0.2 s
DICPCG:  Solving for T, Initial residual = 0.972606, Final residual = 8.64612e-17, No Iterations 1

Time = 0.4 s
DICPCG:  Solving for T, Initial residual = 0.348918, Final residual = 6.75291e-17, No Iterations 1

Time = 0.6 s
DICPCG:  Solving for T, Initial residual = 0.0253514, Final residual = 6.59819e-17, No Iterations 1

Time = 0.8 s
DICPCG:  Solving for T, Initial residual = 0.0119638, Final residual = 2.97509e-17, No Iterations 1

Time = 1 s
DICPCG:  Solving for T, Initial residual = 0.00945321, Final residual = 3.06426e-17, No Iterations 1
************************************************

Projecting sample 69

debug : timeReset, start = 0, index = 0, endTime = 1

SIMPLE: convergence criteria
    field T	 tolerance 1e-06
    field lambda	 tolerance 1e-06
    field deltaT	 tolerance 1e-06

Thermal diffusivity = diffusivity [0 2 -1 0 0 0 0] 0.3 m2/s
debug : BCsample = 0.0347712

Time = 0.2 s
DICPCG:  Solving for T, Initial residual = 0.968514, Final residual = 4.11537e-17, No Iterations 1

Time = 0.4 s
DICPCG:  Solving for T, Initial residual = 0.539507, Final residual = 2.79084e-16, No Iterations 1

Time = 0.6 s
DICPCG:  Solving for T, Initial residual = 0.0743418, Final residual = 9.88014e-17, No Iterations 1

Time = 0.8 s
DICPCG:  Solving for T, Initial residual = 0.0354211, Final residual = 7.06733e-17, No Iterations 1

Time = 1 s
DICPCG:  Solving for T, Initial residual = 0.0215857, Final residual = 3.96594e-17, No Iterations 1
************************************************

Projecting sample 70

debug : timeReset, start = 0, index = 0, endTime = 1

SIMPLE: convergence criteria
    field T	 tolerance 1e-06
    field lambda	 tolerance 1e-06
    field deltaT	 tolerance 1e-06

Thermal diffusivity = diffusivity [0 2 -1 0 0 0 0] 0.3 m2/s
debug : BCsample = 2.02085

Time = 0.2 s
DICPCG:  Solving for T, Initial residual = 0.961741, Final residual = 1.02547e-16, No Iterations 1

Time = 0.4 s
DICPCG:  Solving for T, Initial residual = 0.394583, Final residual = 3.89748e-16, No Iterations 1

Time = 0.6 s
DICPCG:  Solving for T, Initial residual = 0.0843692, Final residual = 2.59023e-16, No Iterations 1

Time = 0.8 s
DICPCG:  Solving for T, Initial residual = 0.0494882, Final residual = 1.52742e-16, No Iterations 1

Time = 1 s
DICPCG:  Solving for T, Initial residual = 0.0355683, Final residual = 1.24701e-16, No Iterations 1
************************************************

Projecting sample 71

debug : timeReset, start = 0, index = 0, endTime = 1

SIMPLE: convergence criteria
    field T	 tolerance 1e-06
    field lambda	 tolerance 1e-06
    field deltaT	 tolerance 1e-06

Thermal diffusivity = diffusivity [0 2 -1 0 0 0 0] 0.3 m2/s
debug : BCsample = -0.117472

Time = 0.2 s
DICPCG:  Solving for T, Initial residual = 0.913347, Final residual = 8.24901e-17, No Iterations 1

Time = 0.4 s
DICPCG:  Solving for T, Initial residual = 0.191867, Final residual = 2.15618e-16, No Iterations 1

Time = 0.6 s
DICPCG:  Solving for T, Initial residual = 0.0648789, Final residual = 1.28747e-16, No Iterations 1

Time = 0.8 s
DICPCG:  Solving for T, Initial residual = 0.0401497, Final residual = 1.08487e-16, No Iterations 1

Time = 1 s
DICPCG:  Solving for T, Initial residual = 0.0368396, Final residual = 1.37201e-16, No Iterations 1
************************************************

Projecting sample 72

debug : timeReset, start = 0, index = 0, endTime = 1

SIMPLE: convergence criteria
    field T	 tolerance 1e-06
    field lambda	 tolerance 1e-06
    field deltaT	 tolerance 1e-06

Thermal diffusivity = diffusivity [0 2 -1 0 0 0 0] 0.3 m2/s
debug : BCsample = -1.42299

Time = 0.2 s
DICPCG:  Solving for T, Initial residual = 0.961651, Final residual = 6.48321e-17, No Iterations 1

Time = 0.4 s
DICPCG:  Solving for T, Initial residual = 0.389024, Final residual = 6.44177e-16, No Iterations 1

Time = 0.6 s
DICPCG:  Solving for T, Initial residual = 0.198765, Final residual = 4.48496e-16, No Iterations 1

Time = 0.8 s
DICPCG:  Solving for T, Initial residual = 0.167888, Final residual = 5.26617e-16, No Iterations 1

Time = 1 s
DICPCG:  Solving for T, Initial residual = 0.0833427, Final residual = 2.57564e-16, No Iterations 1
************************************************

Projecting sample 73

debug : timeReset, start = 0, index = 0, endTime = 1

SIMPLE: convergence criteria
    field T	 tolerance 1e-06
    field lambda	 tolerance 1e-06
    field deltaT	 tolerance 1e-06

Thermal diffusivity = diffusivity [0 2 -1 0 0 0 0] 0.3 m2/s
debug : BCsample = 0.866845

Time = 0.2 s
DICPCG:  Solving for T, Initial residual = 0.947495, Final residual = 3.88535e-16, No Iterations 1

Time = 0.4 s
DICPCG:  Solving for T, Initial residual = 0.291701, Final residual = 2.7534e-16, No Iterations 1

Time = 0.6 s
DICPCG:  Solving for T, Initial residual = 0.0581846, Final residual = 1.10857e-16, No Iterations 1

Time = 0.8 s
DICPCG:  Solving for T, Initial residual = 0.0286742, Final residual = 9.66153e-17, No Iterations 1

Time = 1 s
DICPCG:  Solving for T, Initial residual = 0.0209673, Final residual = 7.55054e-17, No Iterations 1
************************************************

Projecting sample 74

debug : timeReset, start = 0, index = 0, endTime = 1

SIMPLE: convergence criteria
    field T	 tolerance 1e-06
    field lambda	 tolerance 1e-06
    field deltaT	 tolerance 1e-06

Thermal diffusivity = diffusivity [0 2 -1 0 0 0 0] 0.3 m2/s
debug : BCsample = 0.445685

Time = 0.2 s
DICPCG:  Solving for T, Initial residual = 0.947625, Final residual = 8.37265e-17, No Iterations 1

Time = 0.4 s
DICPCG:  Solving for T, Initial residual = 0.383216, Final residual = 1.80946e-16, No Iterations 1

Time = 0.6 s
DICPCG:  Solving for T, Initial residual = 0.055432, Final residual = 5.826e-17, No Iterations 1

Time = 0.8 s
DICPCG:  Solving for T, Initial residual = 0.0159856, Final residual = 2.68789e-17, No Iterations 1

Time = 1 s
DICPCG:  Solving for T, Initial residual = 0.00662447, Final residual = 1.76526e-17, No Iterations 1
************************************************

Projecting sample 75

debug : timeReset, start = 0, index = 0, endTime = 1

SIMPLE: convergence criteria
[...]

Time = 9.4 s
DICPCG:  Solving for T, Initial residual = 0.0160881, Final residual = 3.84941e-17, No Iterations 1
************************************************

Projecting sample 75

debug : timeReset, start = 9, index = 45, endTime = 9.4

SIMPLE: convergence criteria
    field T	 tolerance 1e-06
    field lambda	 tolerance 1e-06
    field deltaT	 tolerance 1e-06

Thermal diffusivity = diffusivity [0 2 -1 0 0 0 0] 0.3 m2/s
debug : BCsample = -2.92592

Time = 9.2 s
DICPCG:  Solving for T, Initial residual = 0.0297845, Final residual = 4.83298e-17, No Iterations 1

Time = 9.4 s
DICPCG:  Solving for T, Initial residual = 0.0165613, Final residual = 4.54841e-17, No Iterations 1
************************************************

Projecting sample 76

debug : timeReset, start = 9, index = 45, endTime = 9.4

SIMPLE: convergence criteria
    field T	 tolerance 1e-06
    field lambda	 tolerance 1e-06
    field deltaT	 tolerance 1e-06

Thermal diffusivity = diffusivity [0 2 -1 0 0 0 0] 0.3 m2/s
debug : BCsample = -3.18366

Time = 9.2 s
DICPCG:  Solving for T, Initial residual = 0.0323082, Final residual = 5.70815e-17, No Iterations 1

Time = 9.4 s
DICPCG:  Solving for T, Initial residual = 0.0190362, Final residual = 6.05619e-17, No Iterations 1
************************************************

Projecting sample 77

debug : timeReset, start = 9, index = 45, endTime = 9.4

SIMPLE: convergence criteria
    field T	 tolerance 1e-06
    field lambda	 tolerance 1e-06
    field deltaT	 tolerance 1e-06

Thermal diffusivity = diffusivity [0 2 -1 0 0 0 0] 0.3 m2/s
debug : BCsample = -2.34372

Time = 9.2 s
DICPCG:  Solving for T, Initial residual = 0.0207761, Final residual = 3.4513e-17, No Iterations 1

Time = 9.4 s
DICPCG:  Solving for T, Initial residual = 0.0103971, Final residual = 4.91084e-17, No Iterations 1
************************************************

Projecting sample 78

debug : timeReset, start = 9, index = 45, endTime = 9.4

SIMPLE: convergence criteria
    field T	 tolerance 1e-06
    field lambda	 tolerance 1e-06
    field deltaT	 tolerance 1e-06

Thermal diffusivity = diffusivity [0 2 -1 0 0 0 0] 0.3 m2/s
debug : BCsample = -2.53863

Time = 9.2 s
DICPCG:  Solving for T, Initial residual = 0.0250732, Final residual = 5.01279e-17, No Iterations 1

Time = 9.4 s
DICPCG:  Solving for T, Initial residual = 0.0126801, Final residual = 3.26699e-17, No Iterations 1
************************************************

Projecting sample 79

debug : timeReset, start = 9, index = 45, endTime = 9.4

SIMPLE: convergence criteria
    field T	 tolerance 1e-06
    field lambda	 tolerance 1e-06
    field deltaT	 tolerance 1e-06

Thermal diffusivity = diffusivity [0 2 -1 0 0 0 0] 0.3 m2/s
debug : BCsample = -1.31084

Time = 9.2 s
DICPCG:  Solving for T, Initial residual = 0.00701061, Final residual = 1.21144e-17, No Iterations 1

Time = 9.4 s
DICPCG:  Solving for T, Initial residual = 0.00263748, Final residual = 5.77939e-18, No Iterations 1
************************************************

Projecting sample 80

debug : timeReset, start = 9, index = 45, endTime = 9.4

SIMPLE: convergence criteria
    field T	 tolerance 1e-06
    field lambda	 tolerance 1e-06
    field deltaT	 tolerance 1e-06

Thermal diffusivity = diffusivity [0 2 -1 0 0 0 0] 0.3 m2/s
debug : BCsample = -3.03331

Time = 9.2 s
DICPCG:  Solving for T, Initial residual = 0.0298018, Final residual = 6.23655e-17, No Iterations 1

Time = 9.4 s
DICPCG:  Solving for T, Initial residual = 0.0175226, Final residual = 6.24377e-17, No Iterations 1
************************************************

Projecting sample 81

debug : timeReset, start = 9, index = 45, endTime = 9.4

SIMPLE: convergence criteria
    field T	 tolerance 1e-06
    field lambda	 tolerance 1e-06
    field deltaT	 tolerance 1e-06

Thermal diffusivity = diffusivity [0 2 -1 0 0 0 0] 0.3 m2/s
debug : BCsample = -2.08978

Time = 9.2 s
DICPCG:  Solving for T, Initial residual = 0.0179694, Final residual = 4.45468e-17, No Iterations 1

Time = 9.4 s
DICPCG:  Solving for T, Initial residual = 0.00782997, Final residual = 2.20896e-17, No Iterations 1
************************************************

Projecting sample 82

debug : timeReset, start = 9, index = 45, endTime = 9.4

SIMPLE: convergence criteria
    field T	 tolerance 1e-06
    field lambda	 tolerance 1e-06
    field deltaT	 tolerance 1e-06

Thermal diffusivity = diffusivity [0 2 -1 0 0 0 0] 0.3 m2/s
debug : BCsample = -0.88965

Time = 9.2 s
DICPCG:  Solving for T, Initial residual = 0.00901016, Final residual = 2.5083e-17, No Iterations 1

Time = 9.4 s
DICPCG:  Solving for T, Initial residual = 0.00854275, Final residual = 2.32503e-17, No Iterations 1
************************************************

Projecting sample 83

debug : timeReset, start = 9, index = 45, endTime = 9.4

SIMPLE: convergence criteria
    field T	 tolerance 1e-06
    field lambda	 tolerance 1e-06
    field deltaT	 tolerance 1e-06

Thermal diffusivity = diffusivity [0 2 -1 0 0 0 0] 0.3 m2/s
debug : BCsample = -5.05395

Time = 9.2 s
DICPCG:  Solving for T, Initial residual = 0.0561122, Final residual = 1.28454e-16, No Iterations 1

Time = 9.4 s
DICPCG:  Solving for T, Initial residual = 0.0344272, Final residual = 8.31851e-17, No Iterations 1
************************************************

Projecting sample 84

debug : timeReset, start = 9, index = 45, endTime = 9.4

SIMPLE: convergence criteria
    field T	 tolerance 1e-06
    field lambda	 tolerance 1e-06
    field deltaT	 tolerance 1e-06

Thermal diffusivity = diffusivity [0 2 -1 0 0 0 0] 0.3 m2/s
debug : BCsample = -0.230684

Time = 9.2 s
DICPCG:  Solving for T, Initial residual = 0.018318, Final residual = 5.07482e-17, No Iterations 1

Time = 9.4 s
DICPCG:  Solving for T, Initial residual = 0.0191688, Final residual = 6.01309e-17, No Iterations 1
************************************************

Projecting sample 85

debug : timeReset, start = 9, index = 45, endTime = 9.4

SIMPLE: convergence criteria
    field T	 tolerance 1e-06
    field lambda	 tolerance 1e-06
    field deltaT	 tolerance 1e-06

Thermal diffusivity = diffusivity [0 2 -1 0 0 0 0] 0.3 m2/s
debug : BCsample = -3.38424

Time = 9.2 s
DICPCG:  Solving for T, Initial residual = 0.0347896, Final residual = 9.76371e-17, No Iterations 1

Time = 9.4 s
DICPCG:  Solving for T, Initial residual = 0.0208964, Final residual = 5.92628e-17, No Iterations 1
************************************************

Projecting sample 86

debug : timeReset, start = 9, index = 45, endTime = 9.4

SIMPLE: convergence criteria
    field T	 tolerance 1e-06
    field lambda	 tolerance 1e-06
    field deltaT	 tolerance 1e-06

Thermal diffusivity = diffusivity [0 2 -1 0 0 0 0] 0.3 m2/s
debug : BCsample = -0.244101

Time = 9.2 s
DICPCG:  Solving for T, Initial residual = 0.0181255, Final residual = 6.09794e-17, No Iterations 1

Time = 9.4 s
DICPCG:  Solving for T, Initial residual = 0.0189333, Final residual = 4.90245e-17, No Iterations 1
************************************************

Projecting sample 87

debug : timeReset, start = 9, index = 45, endTime = 9.4

SIMPLE: convergence criteria
    field T	 tolerance 1e-06
    field lambda	 tolerance 1e-06
    field deltaT	 tolerance 1e-06

Thermal diffusivity = diffusivity [0 2 -1 0 0 0 0] 0.3 m2/s
debug : BCsample = -4.42031

Time = 9.2 s
DICPCG:  Solving for T, Initial residual = 0.0486263, Final residual = 8.09393e-17, No Iterations 1

Time = 9.4 s
DICPCG:  Solving for T, Initial residual = 0.0297914, Final residual = 1.18115e-16, No Iterations 1
************************************************

Projecting sample 88

debug : timeReset, start = 9, index = 45, endTime = 9.4

SIMPLE: convergence criteria
    field T	 tolerance 1e-06
    field lambda	 tolerance 1e-06
    field deltaT	 tolerance 1e-06

Thermal diffusivity = diffusivity [0 2 -1 0 0 0 0] 0.3 m2/s
debug : BCsample = -3.54858

Time = 9.2 s
DICPCG:  Solving for T, Initial residual = 0.0372225, Final residual = 1.27419e-16, No Iterations 1

Time = 9.4 s
DICPCG:  Solving for T, Initial residual = 0.0224466, Final residual = 6.41468e-17, No Iterations 1
************************************************

Projecting sample 89

debug : timeReset, start = 9, index = 45, endTime = 9.4

SIMPLE: convergence criteria
    field T	 tolerance 1e-06
    field lambda	 tolerance 1e-06
    field deltaT	 tolerance 1e-06

Thermal diffusivity = diffusivity [0 2 -1 0 0 0 0] 0.3 m2/s
debug : BCsample = -2.46387

Time = 9.2 s
DICPCG:  Solving for T, Initial residual = 0.0226118, Final residual = 3.63836e-17, No Iterations 1

Time = 9.4 s
DICPCG:  Solving for T, Initial residual = 0.0117092, Final residual = 4.17548e-17, No Iterations 1
************************************************

Projecting sample 90

debug : timeReset, start = 9, index = 45, endTime = 9.4

SIMPLE: convergence criteria
    field T	 tolerance 1e-06
    field lambda	 tolerance 1e-06
    field deltaT	 tolerance 1e-06

Thermal diffusivity = diffusivity [0 2 -1 0 0 0 0] 0.3 m2/s
debug : BCsample = -2.08092

Time = 9.2 s
DICPCG:  Solving for T, Initial residual = 0.0182381, Final residual = 4.62725e-17, No Iterations 1

Time = 9.4 s
DICPCG:  Solving for T, Initial residual = 0.00781877, Final residual = 2.64192e-17, No Iterations 1
************************************************

Projecting sample 91

debug : timeReset, start = 9, index = 45, endTime = 9.4

SIMPLE: convergence criteria
    field T	 tolerance 1e-06
    field lambda	 tolerance 1e-06
    field deltaT	 tolerance 1e-06

Thermal diffusivity = diffusivity [0 2 -1 0 0 0 0] 0.3 m2/s
debug : BCsample = -5.13953

Time = 9.2 s
DICPCG:  Solving for T, Initial residual = 0.0581844, Final residual = 1.35765e-16, No Iterations 1

Time = 9.4 s
DICPCG:  Solving for T, Initial residual = 0.0350917, Final residual = 1.26146e-16, No Iterations 1
************************************************

Projecting sample 92

debug : timeReset, start = 9, index = 45, endTime = 9.4

SIMPLE: convergence criteria
    field T	 tolerance 1e-06
    field lambda	 tolerance 1e-06
    field deltaT	 tolerance 1e-06

Thermal diffusivity = diffusivity [0 2 -1 0 0 0 0] 0.3 m2/s
debug : BCsample = -3.90162

Time = 9.2 s
DICPCG:  Solving for T, Initial residual = 0.0417084, Final residual = 1.21429e-16, No Iterations 1

Time = 9.4 s
DICPCG:  Solving for T, Initial residual = 0.0255288, Final residual = 7.96598e-17, No Iterations 1
************************************************

Projecting sample 93

debug : timeReset, start = 9, index = 45, endTime = 9.4

SIMPLE: convergence criteria
    field T	 tolerance 1e-06
    field lambda	 tolerance 1e-06
    field deltaT	 tolerance 1e-06

Thermal diffusivity = diffusivity [0 2 -1 0 0 0 0] 0.3 m2/s
debug : BCsample = -4.5188

Time = 9.2 s
DICPCG:  Solving for T, Initial residual = 0.0498104, Final residual = 1.16856e-16, No Iterations 1

Time = 9.4 s
DICPCG:  Solving for T, Initial residual = 0.0305106, Final residual = 1.20659e-16, No Iterations 1
************************************************

Projecting sample 94

debug : timeReset, start = 9, index = 45, endTime = 9.4

SIMPLE: convergence criteria
    field T	 tolerance 1e-06
    field lambda	 tolerance 1e-06
    field deltaT	 tolerance 1e-06

Thermal diffusivity = diffusivity [0 2 -1 0 0 0 0] 0.3 m2/s
debug : BCsample = -1.55703

Time = 9.2 s
DICPCG:  Solving for T, Initial residual = 0.0114035, Final residual = 1.418e-17, No Iterations 1

Time = 9.4 s
DICPCG:  Solving for T, Initial residual = 0.00328749, Final residual = 6.5636e-18, No Iterations 1
************************************************

Projecting sample 95

debug : timeReset, start = 9, index = 45, endTime = 9.4

SIMPLE: convergence criteria
    field T	 tolerance 1e-06
    field lambda	 tolerance 1e-06
    field deltaT	 tolerance 1e-06

Thermal diffusivity = diffusivity [0 2 -1 0 0 0 0] 0.3 m2/s
debug : BCsample = -3.67575

Time = 9.2 s
DICPCG:  Solving for T, Initial residual = 0.0393871, Final residual = 1.00859e-16, No Iterations 1

Time = 9.4 s
DICPCG:  Solving for T, Initial residual = 0.0236063, Final residual = 6.02378e-17, No Iterations 1
************************************************

Projecting sample 96

debug : timeReset, start = 9, index = 45, endTime = 9.4

SIMPLE: convergence criteria
    field T	 tolerance 1e-06
    field lambda	 tolerance 1e-06
    field deltaT	 tolerance 1e-06

Thermal diffusivity = diffusivity [0 2 -1 0 0 0 0] 0.3 m2/s
debug : BCsample = -2.18669

Time = 9.2 s
DICPCG:  Solving for T, Initial residual = 0.0196434, Final residual = 3.29898e-17, No Iterations 1

Time = 9.4 s
DICPCG:  Solving for T, Initial residual = 0.00887236, Final residual = 1.99992e-17, No Iterations 1
************************************************

Projecting sample 97

debug : timeReset, start = 9, index = 45, endTime = 9.4

SIMPLE: convergence criteria
    field T	 tolerance 1e-06
    field lambda	 tolerance 1e-06
    field deltaT	 tolerance 1e-06

Thermal diffusivity = diffusivity [0 2 -1 0 0 0 0] 0.3 m2/s
debug : BCsample = -1.67953

Time = 9.2 s
DICPCG:  Solving for T, Initial residual = 0.0127182, Final residual = 9.43219e-18, No Iterations 1

Time = 9.4 s
DICPCG:  Solving for T, Initial residual = 0.00410927, Final residual = 1.26888e-17, No Iterations 1
************************************************

Projecting sample 98

debug : timeReset, start = 9, index = 45, endTime = 9.4

SIMPLE: convergence criteria
    field T	 tolerance 1e-06
    field lambda	 tolerance 1e-06
    field deltaT	 tolerance 1e-06

Thermal diffusivity = diffusivity [0 2 -1 0 0 0 0] 0.3 m2/s
debug : BCsample = 0.767162

Time = 9.2 s
DICPCG:  Solving for T, Initial residual = 0.0325356, Final residual = 1.08843e-16, No Iterations 1

Time = 9.4 s
DICPCG:  Solving for T, Initial residual = 0.0377826, Final residual = 1.61363e-16, No Iterations 1
************************************************

Projecting sample 99

debug : timeReset, start = 9, index = 45, endTime = 9.4

SIMPLE: convergence criteria
    field T	 tolerance 1e-06
    field lambda	 tolerance 1e-06
    field deltaT	 tolerance 1e-06

Thermal diffusivity = diffusivity [0 2 -1 0 0 0 0] 0.3 m2/s
debug : BCsample = -1.7379

Time = 9.2 s
DICPCG:  Solving for T, Initial residual = 0.0124925, Final residual = 2.06549e-17, No Iterations 1

Time = 9.4 s
DICPCG:  Solving for T, Initial residual = 0.00435906, Final residual = 7.27764e-18, No Iterations 1
************************************************

Projecting sample 100

debug : timeReset, start = 9, index = 45, endTime = 9.4

SIMPLE: convergence criteria
    field T	 tolerance 1e-06
    field lambda	 tolerance 1e-06
    field deltaT	 tolerance 1e-06

Thermal diffusivity = diffusivity [0 2 -1 0 0 0 0] 0.3 m2/s
debug : BCsample = -2.9809

Time = 9.2 s
DICPCG:  Solving for T, Initial residual = 0.0301932, Final residual = 6.03402e-17, No Iterations 1

Time = 9.4 s
DICPCG:  Solving for T, Initial residual = 0.0171596, Final residual = 5.66612e-17, No Iterations 1
debug : stateMean.cols() = 47
debug : _index = 45
debug : stateMean.cols() = 47
debug : _index = 46
stateEns.getSamples().cols() = 100
End time = 0
debug : P = 
 0.538023  0.282037  0.201799   0.14146 0.0602837
 0.282037   0.16065  0.107791  0.075562 0.0322015
 0.201799  0.107791  0.087126 0.0540659 0.0230409
  0.14146  0.075562 0.0540659 0.0479007  0.016152
0.0602837 0.0322015 0.0230409  0.016152 0.0168835
debug : P inverse = 
 34.8397 -34.7829  -24.879 -17.4345 -7.42567
-34.7829   81.407 -13.3086 -9.33295 -3.97986
 -24.879 -13.3086  90.4701  -6.6856 -2.85281
-17.4345 -9.33295  -6.6856   95.308 -2.00343
-7.42567 -3.97986 -2.85281 -2.00343  99.1436
debug : parameterEns.mean() =
-2.31734
debug : stateEns.mean() =
 4.12147
 3.98305
 3.83738
 3.68474
 3.52543
 3.35981
 3.18827
 3.01121
 2.82905
 2.64218
 2.45104
 2.25602
 2.05755
 1.85603
 1.65187
 1.44548
 1.23727
 1.02763
0.816985
0.605729

*****************************************************
Kalman filter run ENDED

*****************************************************
Postprocessing the results
######### Reading the Data for Tdirect #########
  4% [||                                                          ]  6% [|||                                                         ]  8% [||||                                                        ] 10% [||||||                                                      ] 12% [|||||||                                                     ] 14% [||||||||                                                    ] 16% [|||||||||                                                   ] 18% [|||||||||||                                                 ] 20% [||||||||||||                                                ] 22% [|||||||||||||                                               ] 24% [||||||||||||||                                              ] 26% [|||||||||||||||                                             ] 28% [|||||||||||||||||                                           ] 30% [||||||||||||||||||                                          ] 32% [|||||||||||||||||||                                         ] 34% [||||||||||||||||||||                                        ] 36% [||||||||||||||||||||||                                      ] 38% [|||||||||||||||||||||||                                     ] 40% [||||||||||||||||||||||||                                    ] 42% [|||||||||||||||||||||||||                                   ] 44% [||||||||||||||||||||||||||                                  ] 46% [||||||||||||||||||||||||||||                                ] 48% [|||||||||||||||||||||||||||||                               ] 51% [||||||||||||||||||||||||||||||                              ] 53% [|||||||||||||||||||||||||||||||                             ] 55% [|||||||||||||||||||||||||||||||||                           ] 57% [||||||||||||||||||||||||||||||||||                          ] 59% [|||||||||||||||||||||||||||||||||||                         ] 61% [||||||||||||||||||||||||||||||||||||                        ] 63% [|||||||||||||||||||||||||||||||||||||                       ] 65% [|||||||||||||||||||||||||||||||||||||||                     ] 67% [||||||||||||||||||||||||||||||||||||||||                    ] 69% [|||||||||||||||||||||||||||||||||||||||||                   ] 71% [||||||||||||||||||||||||||||||||||||||||||                  ] 73% [||||||||||||||||||||||||||||||||||||||||||||                ] 75% [|||||||||||||||||||||||||||||||||||||||||||||               ] 77% [||||||||||||||||||||||||||||||||||||||||||||||              ] 79% [|||||||||||||||||||||||||||||||||||||||||||||||             ] 81% [||||||||||||||||||||||||||||||||||||||||||||||||            ] 83% [||||||||||||||||||||||||||||||||||||||||||||||||||          ] 85% [|||||||||||||||||||||||||||||||||||||||||||||||||||         ] 87% [||||||||||||||||||||||||||||||||||||||||||||||||||||        ] 89% [|||||||||||||||||||||||||||||||||||||||||||||||||||||       ] 91% [|||||||||||||||||||||||||||||||||||||||||||||||||||||||     ] 93% [||||||||||||||||||||||||||||||||||||||||||||||||||||||||    ] 95% [|||||||||||||||||||||||||||||||||||||||||||||||||||||||||   ] 97% [||||||||||||||||||||||||||||||||||||||||||||||||||||||||||  ]100% [||||||||||||||||||||||||||||||||||||||||||||||||||||||||||||]
debug : TtrueList.size() = 47
timeI = 0
timeI = 1
timeI = 2
timeI = 3
timeI = 4
timeI = 5
timeI = 6
timeI = 7
timeI = 8
timeI = 9
timeI = 10
timeI = 11
timeI = 12
timeI = 13
timeI = 14
timeI = 15
timeI = 16
timeI = 17
timeI = 18
timeI = 19
timeI = 20
timeI = 21
timeI = 22
timeI = 23
timeI = 24
timeI = 25
timeI = 26
timeI = 27
timeI = 28
timeI = 29
timeI = 30
timeI = 31
timeI = 32
timeI = 33
timeI = 34
timeI = 35
timeI = 36
timeI = 37
timeI = 38
timeI = 39
timeI = 40
timeI = 41
timeI = 42
timeI = 43
timeI = 44
timeI = 45
timeI = 46
