/*---------------------------------------------------------------------------*\
| =========                 |                                                 |
| \\      /  F ield         | OpenFOAM: The Open Source CFD Toolbox           |
|  \\    /   O peration     | Version:  v2012                                 |
|   \\  /    A nd           | Website:  www.openfoam.com                      |
|    \\/     M anipulation  |                                                 |
\*---------------------------------------------------------------------------*/
Build  : _7bdb509494-20201222 OPENFOAM=2012
Arch   : "LSB;label=32;scalar=64"
Exec   : sequentialAcquisitionTest
Date   : Feb 16 2021
Time   : 16:30:51
Host   : inspiron-UM
PID    : 19414
I/O    : uncollated
Case   : /media/Data/ITHACA-FV/tutorials/inverseHeatTransfer/sequentialAcquisitionTest/coarseMesh
nProcs : 1
trapFpe: Floating point exception trapping enabled (FOAM_SIGFPE).
fileModificationChecking : Monitoring run-time modified files using timeStampMaster (fileModificationSkew 5, maxFileModificationPolls 20)
allowSystemOperations : Allowing user-supplied system call operations

// * * * * * * * * * * * * * * * * * * * * * * * * * * * * * * * * * * * * * //
Create time

Create mesh for time = 0


SIMPLE: convergence criteria
    field T	 tolerance 1e-12
    field lambda	 tolerance 1e-12
    field deltaT	 tolerance 1e-12

Create field T
First sampling time = 1
Delta time between samples = 1
Number of samplings = 100
Offline don't exist, performing the Offline Solve
POD don't exist, performing a POD decomposition
/*---------------------------------------------------------------------------*\
| =========                 |                                                 |
| \\      /  F ield         | OpenFOAM: The Open Source CFD Toolbox           |
|  \\    /   O peration     | Version:  v2012                                 |
|   \\  /    A nd           | Website:  www.openfoam.com                      |
|    \\/     M anipulation  |                                                 |
\*---------------------------------------------------------------------------*/
Build  : _7bdb509494-20201222 OPENFOAM=2012
Arch   : "LSB;label=32;scalar=64"
Exec   : sequentialAcquisitionTest
Date   : Feb 16 2021
Time   : 16:30:51
Host   : inspiron-UM
PID    : 19414
--> FOAM Warning : 
    From Foam::entry* Foam::dictionary::add(Foam::entry*, bool)
    in file db/dictionary/dictionary.C at line 777
    Reading "JobInfo" at line 0
    Attempt to add entry startDate which already exists in dictionary "JobInfo"
--> FOAM Warning : 
    From Foam::entry* Foam::dictionary::add(Foam::entry*, bool)
    in file db/dictionary/dictionary.C at line 777
    Reading "JobInfo" at line 0
    Attempt to add entry startTime which already exists in dictionary "JobInfo"
--> FOAM Warning : 
    From Foam::entry* Foam::dictionary::add(Foam::entry*, bool)
    in file db/dictionary/dictionary.C at line 777
    Reading "JobInfo" at line 0
    Attempt to add entry userName which already exists in dictionary "JobInfo"
--> FOAM Warning : 
    From Foam::entry* Foam::dictionary::add(Foam::entry*, bool)
    in file db/dictionary/dictionary.C at line 777
    Reading "JobInfo" at line 0
    Attempt to add entry foamVersion which already exists in dictionary "JobInfo"
--> FOAM Warning : 
    From Foam::entry* Foam::dictionary::add(Foam::entry*, bool)
    in file db/dictionary/dictionary.C at line 777
    Reading "JobInfo" at line 0
    Attempt to add entry code which already exists in dictionary "JobInfo"
--> FOAM Warning : 
    From Foam::entry* Foam::dictionary::add(Foam::entry*, bool)
    in file db/dictionary/dictionary.C at line 777
    Reading "JobInfo" at line 0
    Attempt to add entry argList which already exists in dictionary "JobInfo"
--> FOAM Warning : 
    From Foam::entry* Foam::dictionary::add(Foam::entry*, bool)
    in file db/dictionary/dictionary.C at line 777
    Reading "JobInfo" at line 0
    Attempt to add entry currentDir which already exists in dictionary "JobInfo"
--> FOAM Warning : 
    From Foam::entry* Foam::dictionary::add(Foam::entry*, bool)
    in file db/dictionary/dictionary.C at line 777
    Reading "JobInfo" at line 0
    Attempt to add entry PPID which already exists in dictionary "JobInfo"
--> FOAM Warning : 
    From Foam::entry* Foam::dictionary::add(Foam::entry*, bool)
    in file db/dictionary/dictionary.C at line 777
    Reading "JobInfo" at line 0
    Attempt to add entry PGID which already exists in dictionary "JobInfo"
--> FOAM Warning : 
    From Foam::entry* Foam::dictionary::add(Foam::entry*, bool)
    in file db/dictionary/dictionary.C at line 777
    Reading "JobInfo" at line 0
    Attempt to add entry foamBuild which already exists in dictionary "JobInfo"
I/O    : uncollated
Case   : /media/Data/ITHACA-FV/tutorials/inverseHeatTransfer/sequentialAcquisitionTest/coarseMesh
nProcs : 1
--> FOAM Warning : 
    From Foam::entry* Foam::dictionary::add(Foam::entry*, bool)
    in file db/dictionary/dictionary.C at line 777
    Reading "JobInfo" at line 0
    Attempt to add entry root which already exists in dictionary "JobInfo"
--> FOAM Warning : 
    From Foam::entry* Foam::dictionary::add(Foam::entry*, bool)
    in file db/dictionary/dictionary.C at line 777
    Reading "JobInfo" at line 0
    Attempt to add entry case which already exists in dictionary "JobInfo"
--> FOAM Warning : 
    From Foam::entry* Foam::dictionary::add(Foam::entry*, bool)
    in file db/dictionary/dictionary.C at line 777
    Reading "JobInfo" at line 0
    Attempt to add entry nProcs which already exists in dictionary "JobInfo"
fileModificationChecking : Monitoring run-time modified files using timeStampMaster (fileModificationSkew 5, maxFileModificationPolls 20)
allowSystemOperations : Allowing user-supplied system call operations

// * * * * * * * * * * * * * * * * * * * * * * * * * * * * * * * * * * * * * //
Create time

Create mesh for time = 0


SIMPLE: convergence criteria
    field T	 tolerance 1e-12
    field lambda	 tolerance 1e-12
    field deltaT	 tolerance 1e-12

Create field T
Offline data already exist, reading existing data
POD data already exist, reading existing modes

 ************************************************************ 
Conducting chirp test to compare performance of steady and unsteady inverse solvers
We assume the heat flux to estimate has the shape:

 g = A + B sin [2 pi (a t) t] 
Maximum frequency is 0.1Hz
 
Using time basis of type constant

Defining positions of thermocouples
Reading thermocouples cells from file

SIMPLE: convergence criteria
    field T	 tolerance 1e-12
    field lambda	 tolerance 1e-12
    field deltaT	 tolerance 1e-12

Ready for new computation

SIMPLE: convergence criteria
    field T	 tolerance 1e-12
    field lambda	 tolerance 1e-12
    field deltaT	 tolerance 1e-12

DT = DT [1 1 -3 -1 0 0 0] 1
DICPCG:  Solving for T, Initial residual = 1, Final residual = 8.493746386756018e-13, No Iterations 30
DICPCG:  Solving for T, Initial residual = 5.321825050587684e-13, Final residual = 5.321825050587684e-13, No Iterations 0

SIMPLE solution converged in 0.2 iterations

Performing true computation

SIMPLE: convergence criteria
    field T	 tolerance 1e-12
    field lambda	 tolerance 1e-12
    field deltaT	 tolerance 1e-12

Ready for new computation
Thermal diffusivity = 0.0001098491366947743 m2/s
Time = 0.1

DICPCG:  Solving for T, Initial residual = 6.570210466544943e-08, Final residual = 8.707149047226896e-14, No Iterations 2

ExecutionTime = 0.16 s  ClockTime = 0 s

Time = 0.2

DICPCG:  Solving for T, Initial residual = 2.628082717783787e-07, Final residual = 3.418311183849447e-13, No Iterations 2

ExecutionTime = 0.17 s  ClockTime = 0 s

Time = 0.3

DICPCG:  Solving for T, Initial residual = 5.913180641822157e-07, Final residual = 7.501334490884502e-13, No Iterations 2

ExecutionTime = 0.19 s  ClockTime = 0 s

Time = 0.4

DICPCG:  Solving for T, Initial residual = 1.051230227317353e-06, Final residual = 1.010208351418933e-15, No Iterations 3

ExecutionTime = 0.21 s  ClockTime = 0 s

Time = 0.5

DICPCG:  Solving for T, Initial residual = 1.642542304766922e-06, Final residual = 1.518748380169707e-15, No Iterations 3

ExecutionTime = 0.23 s  ClockTime = 0 s

Time = 0.6

DICPCG:  Solving for T, Initial residual = 2.365250167670887e-06, Final residual = 2.10759072957193e-15, No Iterations 3

ExecutionTime = 0.24 s  ClockTime = 0 s

Time = 0.7

DICPCG:  Solving for T, Initial residual = 3.219347520058181e-06, Final residual = 2.769388002664683e-15, No Iterations 3

ExecutionTime = 0.26 s  ClockTime = 0 s

Time = 0.8

DICPCG:  Solving for T, Initial residual = 4.204825372938192e-06, Final residual = 3.499229926394248e-15, No Iterations 3

ExecutionTime = 0.28 s  ClockTime = 0 s

Time = 0.9

DICPCG:  Solving for T, Initial residual = 5.321671488647742e-06, Final residual = 4.294310147857689e-15, No Iterations 3

ExecutionTime = 0.29 s  ClockTime = 1 s

Time = 1

DICPCG:  Solving for T, Initial residual = 6.569869794778454e-06, Final residual = 5.148661491451485e-15, No Iterations 3

ExecutionTime = 0.31 s  ClockTime = 1 s

Time = 1.1

DICPCG:  Solving for T, Initial residual = 7.949399768049933e-06, Final residual = 6.059429770188523e-15, No Iterations 3

ExecutionTime = 0.33 s  ClockTime = 1 s

Time = 1.2

DICPCG:  Solving for T, Initial residual = 9.46023578820666e-06, Final residual = 7.025624400257792e-15, No Iterations 3

ExecutionTime = 0.34 s  ClockTime = 1 s

Time = 1.3

DICPCG:  Solving for T, Initial residual = 1.110234646204047e-05, Final residual = 8.043521025896579e-15, No Iterations 3

ExecutionTime = 0.36 s  ClockTime = 1 s

Time = 1.4

DICPCG:  Solving for T, Initial residual = 1.287569391721849e-05, Final residual = 9.115411736667445e-15, No Iterations 3

ExecutionTime = 0.39 s  ClockTime = 1 s

Time = 1.5

DICPCG:  Solving for T, Initial residual = 1.47802330660878e-05, Final residual = 1.024084889037817e-14, No Iterations 3

ExecutionTime = 0.4 s  ClockTime = 1 s

Time = 1.6

DICPCG:  Solving for T, Initial residual = 1.681591083887955e-05, Final residual = 1.141339046856176e-14, No Iterations 3

ExecutionTime = 0.42 s  ClockTime = 1 s

Time = 1.7

DICPCG:  Solving for T, Initial residual = 1.898266538625584e-05, Final residual = 1.263381929058104e-14, No Iterations 3

ExecutionTime = 0.44 s  ClockTime = 1 s

Time = 1.8

DICPCG:  Solving for T, Initial residual = 2.128042525120144e-05, Final residual = 1.389932510805654e-14, No Iterations 3

ExecutionTime = 0.46 s  ClockTime = 1 s

Time = 1.9

DICPCG:  Solving for T, Initial residual = 2.370910821883396e-05, Final residual = 1.521232794599569e-14, No Iterations 3

ExecutionTime = 0.48 s  ClockTime = 1 s

Time = 2

DICPCG:  Solving for T, Initial residual = 2.626862095515953e-05, Final residual = 1.656800130476604e-14, No Iterations 3

ExecutionTime = 0.49 s  ClockTime = 1 s

Time = 2.1

DICPCG:  Solving for T, Initial residual = 2.895885804786584e-05, Final residual = 1.796454447282966e-14, No Iterations 3

ExecutionTime = 0.51 s  ClockTime = 1 s

Time = 2.2

DICPCG:  Solving for T, Initial residual = 3.177970066995633e-05, Final residual = 1.940112282977276e-14, No Iterations 3

ExecutionTime = 0.53 s  ClockTime = 1 s

Time = 2.3

DICPCG:  Solving for T, Initial residual = 3.473101577384094e-05, Final residual = 2.087646796145513e-14, No Iterations 3

ExecutionTime = 0.54 s  ClockTime = 1 s

Time = 2.4

DICPCG:  Solving for T, Initial residual = 3.781265507590506e-05, Final residual = 2.2389892205023e-14, No Iterations 3

ExecutionTime = 0.5600000000000001 s  ClockTime = 1 s

Time = 2.5

DICPCG:  Solving for T, Initial residual = 4.102445401067311e-05, Final residual = 2.394021383045174e-14, No Iterations 3

ExecutionTime = 0.58 s  ClockTime = 1 s

Time = 2.6

DICPCG:  Solving for T, Initial residual = 4.43662306550246e-05, Final residual = 2.552820742948362e-14, No Iterations 3

ExecutionTime = 0.59 s  ClockTime = 1 s

Time = 2.7

DICPCG:  Solving for T, Initial residual = 4.783778462339771e-05, Final residual = 2.715350958256854e-14, No Iterations 3

ExecutionTime = 0.61 s  ClockTime = 1 s

Time = 2.8

DICPCG:  Solving for T, Initial residual = 5.143889593468571e-05, Final residual = 2.881538252816589e-14, No Iterations 3

ExecutionTime = 0.63 s  ClockTime = 1 s

Time = 2.9

DICPCG:  Solving for T, Initial residual = 5.516932385175879e-05, Final residual = 3.051236017754456e-14, No Iterations 3

ExecutionTime = 0.65 s  ClockTime = 2 s

Time = 3

DICPCG:  Solving for T, Initial residual = 5.902880569486277e-05, Final residual = 3.224269256861708e-14, No Iterations 3

ExecutionTime = 0.67 s  ClockTime = 2 s

Time = 3.1

DICPCG:  Solving for T, Initial residual = 6.301705562995481e-05, Final residual = 3.400589193643286e-14, No Iterations 3

ExecutionTime = 0.6899999999999999 s  ClockTime = 2 s

Time = 3.2

DICPCG:  Solving for T, Initial residual = 6.713376343320124e-05, Final residual = 3.580108898085676e-14, No Iterations 3

ExecutionTime = 0.7 s  ClockTime = 2 s

Time = 3.3

DICPCG:  Solving for T, Initial residual = 7.137859323306252e-05, Final residual = 3.762736659888129e-14, No Iterations 3

ExecutionTime = 0.72 s  ClockTime = 2 s

Time = 3.4

DICPCG:  Solving for T, Initial residual = 7.575118223116938e-05, Final residual = 3.948386427755111e-14, No Iterations 3

ExecutionTime = 0.74 s  ClockTime = 2 s

Time = 3.5

DICPCG:  Solving for T, Initial residual = 8.02511375402541e-05, Final residual = 4.136975994298366e-14, No Iterations 3

ExecutionTime = 0.76 s  ClockTime = 2 s

Time = 3.6

DICPCG:  Solving for T, Initial residual = 8.487803598369054e-05, Final residual = 4.328479378381695e-14, No Iterations 3

ExecutionTime = 0.77 s  ClockTime = 2 s

Time = 3.7

DICPCG:  Solving for T, Initial residual = 8.963142955309842e-05, Final residual = 4.522906764343804e-14, No Iterations 3

ExecutionTime = 0.79 s  ClockTime = 2 s

Time = 3.8

DICPCG:  Solving for T, Initial residual = 9.451083449121558e-05, Final residual = 4.720328705112737e-14, No Iterations 3

ExecutionTime = 0.8100000000000001 s  ClockTime = 2 s

Time = 3.9

DICPCG:  Solving for T, Initial residual = 9.951573344822994e-05, Final residual = 4.920748175997106e-14, No Iterations 3

ExecutionTime = 0.82 s  ClockTime = 2 s

Time = 4

DICPCG:  Solving for T, Initial residual = 0.0001046455668737459, Final residual = 5.124143823012037e-14, No Iterations 3

ExecutionTime = 0.84 s  ClockTime = 2 s

Time = 4.1

DICPCG:  Solving for T, Initial residual = 0.0001098997444543208, Final residual = 5.330775240112439e-14, No Iterations 3

ExecutionTime = 0.86 s  ClockTime = 2 s

Time = 4.2

DICPCG:  Solving for T, Initial residual = 0.000115277642615994, Final residual = 5.540190791276347e-14, No Iterations 3

ExecutionTime = 0.87 s  ClockTime = 2 s

Time = 4.3

DICPCG:  Solving for T, Initial residual = 0.0001207785988925581, Final residual = 5.752595697679972e-14, No Iterations 3

ExecutionTime = 0.89 s  ClockTime = 2 s

Time = 4.4

DICPCG:  Solving for T, Initial residual = 0.0001264019067530051, Final residual = 5.967576375075527e-14, No Iterations 3

ExecutionTime = 0.91 s  ClockTime = 2 s

Time = 4.5

DICPCG:  Solving for T, Initial residual = 0.0001321468101295456, Final residual = 6.18512922819308e-14, No Iterations 3

ExecutionTime = 0.93 s  ClockTime = 2 s

Time = 4.6

DICPCG:  Solving for T, Initial residual = 0.0001380125115293074, Final residual = 6.405136028183631e-14, No Iterations 3

ExecutionTime = 0.95 s  ClockTime = 2 s

Time = 4.7

DICPCG:  Solving for T, Initial residual = 0.0001439981853106752, Final residual = 6.627566253942288e-14, No Iterations 3

ExecutionTime = 0.97 s  ClockTime = 2 s

Time = 4.8

DICPCG:  Solving for T, Initial residual = 0.0001501029487124965, Final residual = 6.852424603053301e-14, No Iterations 3

ExecutionTime = 0.98 s  ClockTime = 2 s

Time = 4.9

DICPCG:  Solving for T, Initial residual = 0.0001563258710888863, Final residual = 7.079601604475762e-14, No Iterations 3

ExecutionTime = 1 s  ClockTime = 2 s

Time = 5

DICPCG:  Solving for T, Initial residual = 0.0001626659726907795, Final residual = 7.309023686008446e-14, No Iterations 3

ExecutionTime = 1.02 s  ClockTime = 3 s

Time = 5.1

DICPCG:  Solving for T, Initial residual = 0.0001691222232471359, Final residual = 7.540673722105983e-14, No Iterations 3

ExecutionTime = 1.03 s  ClockTime = 3 s

Time = 5.2

DICPCG:  Solving for T, Initial residual = 0.0001756935405504948, Final residual = 7.774509106822003e-14, No Iterations 3

ExecutionTime = 1.05 s  ClockTime = 3 s

Time = 5.3

DICPCG:  Solving for T, Initial residual = 0.0001823787890485607, Final residual = 8.010372756978298e-14, No Iterations 3

ExecutionTime = 1.07 s  ClockTime = 3 s

Time = 5.4

DICPCG:  Solving for T, Initial residual = 0.0001891767597765301, Final residual = 8.248283414377446e-14, No Iterations 3

ExecutionTime = 1.08 s  ClockTime = 3 s

Time = 5.5

DICPCG:  Solving for T, Initial residual = 0.0001960862129608823, Final residual = 8.488208526662999e-14, No Iterations 3

ExecutionTime = 1.1 s  ClockTime = 3 s

Time = 5.6

DICPCG:  Solving for T, Initial residual = 0.000203105853589593, Final residual = 8.73001495516413e-14, No Iterations 3

ExecutionTime = 1.12 s  ClockTime = 3 s

Time = 5.7

DICPCG:  Solving for T, Initial residual = 0.0002102343186681123, Final residual = 8.973609521346345e-14, No Iterations 3

ExecutionTime = 1.14 s  ClockTime = 3 s

Time = 5.8

DICPCG:  Solving for T, Initial residual = 0.0002174701684051463, Final residual = 9.218860848610936e-14, No Iterations 3

ExecutionTime = 1.16 s  ClockTime = 3 s

Time = 5.9

DICPCG:  Solving for T, Initial residual = 0.0002248119094534095, Final residual = 9.465812002931061e-14, No Iterations 3

ExecutionTime = 1.17 s  ClockTime = 3 s

Time = 6

DICPCG:  Solving for T, Initial residual = 0.0002322579931990591, Final residual = 9.714615295459115e-14, No Iterations 3

ExecutionTime = 1.2 s  ClockTime = 3 s

Time = 6.1

DICPCG:  Solving for T, Initial residual = 0.0002398067684073536, Final residual = 9.964846591036966e-14, No Iterations 3

ExecutionTime = 1.21 s  ClockTime = 3 s

Time = 6.2

DICPCG:  Solving for T, Initial residual = 0.0002474566111731206, Final residual = 1.021643304583785e-13, No Iterations 3

ExecutionTime = 1.23 s  ClockTime = 3 s

Time = 6.3

DICPCG:  Solving for T, Initial residual = 0.0002552057767552607, Final residual = 1.046934984111597e-13, No Iterations 3

ExecutionTime = 1.25 s  ClockTime = 3 s

Time = 6.4

DICPCG:  Solving for T, Initial residual = 0.0002630524523871341, Final residual = 1.072345237567856e-13, No Iterations 3

ExecutionTime = 1.26 s  ClockTime = 3 s

Time = 6.5

DICPCG:  Solving for T, Initial residual = 0.000270994756058273, Final residual = 1.097865650794475e-13, No Iterations 3

ExecutionTime = 1.28 s  ClockTime = 3 s

Time = 6.6

DICPCG:  Solving for T, Initial residual = 0.0002790307353222862, Final residual = 1.123480420340378e-13, No Iterations 3

ExecutionTime = 1.3 s  ClockTime = 3 s

Time = 6.7

DICPCG:  Solving for T, Initial residual = 0.0002871583661333081, Final residual = 1.149194163507451e-13, No Iterations 3

ExecutionTime = 1.32 s  ClockTime = 3 s

Time = 6.8

DICPCG:  Solving for T, Initial residual = 0.0002953755517121524, Final residual = 1.17504084894534e-13, No Iterations 3

ExecutionTime = 1.33 s  ClockTime = 3 s

Time = 6.9

DICPCG:  Solving for T, Initial residual = 0.0003036801214443782, Final residual = 1.200962990500121e-13, No Iterations 3

ExecutionTime = 1.35 s  ClockTime = 3 s

Time = 7

DICPCG:  Solving for T, Initial residual = 0.0003120698274539829, Final residual = 1.226941448197088e-13, No Iterations 3

ExecutionTime = 1.36 s  ClockTime = 3 s

Time = 7.1

DICPCG:  Solving for T, Initial residual = 0.0003205423153052209, Final residual = 1.25296046993595e-13, No Iterations 3

ExecutionTime = 1.38 s  ClockTime = 4 s

Time = 7.2

DICPCG:  Solving for T, Initial residual = 0.0003290951687100236, Final residual = 1.279009379620371e-13, No Iterations 3

ExecutionTime = 1.4 s  ClockTime = 4 s

Time = 7.3

DICPCG:  Solving for T, Initial residual = 0.0003377259409338773, Final residual = 1.305080861686367e-13, No Iterations 3

ExecutionTime = 1.42 s  ClockTime = 4 s

Time = 7.4

DICPCG:  Solving for T, Initial residual = 0.0003464319644821362, Final residual = 1.331159191794979e-13, No Iterations 3

ExecutionTime = 1.44 s  ClockTime = 4 s

Time = 7.5

DICPCG:  Solving for T, Initial residual = 0.0003552106936485113, Final residual = 1.357234997169976e-13, No Iterations 3

ExecutionTime = 1.46 s  ClockTime = 4 s

Time = 7.6

DICPCG:  Solving for T, Initial residual = 0.0003640593869215751, Final residual = 1.38329790948398e-13, No Iterations 3

ExecutionTime = 1.48 s  ClockTime = 4 s

Time = 7.7

DICPCG:  Solving for T, Initial residual = 0.0003729752612791335, Final residual = 1.409331931282507e-13, No Iterations 3

ExecutionTime = 1.49 s  ClockTime = 4 s

Time = 7.8

DICPCG:  Solving for T, Initial residual = 0.0003819554679998624, Final residual = 1.435327388339806e-13, No Iterations 3

ExecutionTime = 1.51 s  ClockTime = 4 s

Time = 7.9

DICPCG:  Solving for T, Initial residual = 0.0003909970001085656, Final residual = 1.461318405946221e-13, No Iterations 3

ExecutionTime = 1.53 s  ClockTime = 4 s

Time = 8

DICPCG:  Solving for T, Initial residual = 0.0004000967260534843, Final residual = 1.48728085400374e-13, No Iterations 3

ExecutionTime = 1.54 s  ClockTime = 4 s

Time = 8.1

DICPCG:  Solving for T, Initial residual = 0.0004092515704324407, Final residual = 1.513163938788715e-13, No Iterations 3

ExecutionTime = 1.57 s  ClockTime = 4 s

Time = 8.2

DICPCG:  Solving for T, Initial residual = 0.0004184582626760737, Final residual = 1.538962293302013e-13, No Iterations 3

ExecutionTime = 1.59 s  ClockTime = 4 s

Time = 8.3

DICPCG:  Solving for T, Initial residual = 0.0004277135375418976, Final residual = 1.564655899579313e-13, No Iterations 3

ExecutionTime = 1.6 s  ClockTime = 4 s

Time = 8.4

DICPCG:  Solving for T, Initial residual = 0.0004370140844795879, Final residual = 1.590230035370074e-13, No Iterations 3

ExecutionTime = 1.62 s  ClockTime = 4 s

Time = 8.5

DICPCG:  Solving for T, Initial residual = 0.0004463564395864258, Final residual = 1.615673174602868e-13, No Iterations 3

ExecutionTime = 1.63 s  ClockTime = 4 s

Time = 8.6

DICPCG:  Solving for T, Initial residual = 0.0004557370476737616, Final residual = 1.640972529414315e-13, No Iterations 3

ExecutionTime = 1.65 s  ClockTime = 4 s

Time = 8.7

DICPCG:  Solving for T, Initial residual = 0.0004651521470520924, Final residual = 1.666105914117691e-13, No Iterations 3

ExecutionTime = 1.68 s  ClockTime = 4 s

Time = 8.8

DICPCG:  Solving for T, Initial residual = 0.0004745979455225655, Final residual = 1.691057736957564e-13, No Iterations 3

ExecutionTime = 1.69 s  ClockTime = 4 s

Time = 8.9

DICPCG:  Solving for T, Initial residual = 0.0004840706717684436, Final residual = 1.715812687607616e-13, No Iterations 3

ExecutionTime = 1.71 s  ClockTime = 4 s

Time = 9

DICPCG:  Solving for T, Initial residual = 0.0004935664945547942, Final residual = 1.740358149542592e-13, No Iterations 3

ExecutionTime = 1.73 s  ClockTime = 4 s

Time = 9.1

DICPCG:  Solving for T, Initial residual = 0.0005030813995349158, Final residual = 1.764695806473532e-13, No Iterations 3

ExecutionTime = 1.75 s  ClockTime = 5 s

Time = 9.2

DICPCG:  Solving for T, Initial residual = 0.0005126112683296765, Final residual = 1.788814674736674e-13, No Iterations 3

ExecutionTime = 1.76 s  ClockTime = 5 s

Time = 9.3

DICPCG:  Solving for T, Initial residual = 0.0005221520078620384, Final residual = 1.812672123232923e-13, No Iterations 3

ExecutionTime = 1.78 s  ClockTime = 5 s

Time = 9.4

DICPCG:  Solving for T, Initial residual = 0.0005316994161920199, Final residual = 1.836251540942604e-13, No Iterations 3

ExecutionTime = 1.8 s  ClockTime = 5 s

Time = 9.5

DICPCG:  Solving for T, Initial residual = 0.0005412490181089015, Final residual = 1.859535573456967e-13, No Iterations 3

ExecutionTime = 1.82 s  ClockTime = 5 s

Time = 9.6

DICPCG:  Solving for T, Initial residual = 0.0005507964132593341, Final residual = 1.882508938107863e-13, No Iterations 3

ExecutionTime = 1.83 s  ClockTime = 5 s

Time = 9.7

DICPCG:  Solving for T, Initial residual = 0.0005603371992436249, Final residual = 1.905160902692812e-13, No Iterations 3

ExecutionTime = 1.84 s  ClockTime = 5 s

Time = 9.8

DICPCG:  Solving for T, Initial residual = 0.0005698667704588375, Final residual = 1.927467484442832e-13, No Iterations 3

ExecutionTime = 1.87 s  ClockTime = 5 s

Time = 9.9

DICPCG:  Solving for T, Initial residual = 0.000579380272298383, Final residual = 1.949412434407302e-13, No Iterations 3

ExecutionTime = 1.89 s  ClockTime = 5 s

Time = 10

DICPCG:  Solving for T, Initial residual = 0.0005888731190222621, Final residual = 1.970983274090607e-13, No Iterations 3

ExecutionTime = 1.9 s  ClockTime = 5 s

Time = 10.1

DICPCG:  Solving for T, Initial residual = 0.0005983405608820409, Final residual = 1.992169521794896e-13, No Iterations 3

ExecutionTime = 1.92 s  ClockTime = 5 s

Time = 10.2

DICPCG:  Solving for T, Initial residual = 0.000607777612616241, Final residual = 2.012959195654051e-13, No Iterations 3

ExecutionTime = 1.94 s  ClockTime = 5 s

Time = 10.3

DICPCG:  Solving for T, Initial residual = 0.0006171791681683107, Final residual = 2.033322073600006e-13, No Iterations 3

ExecutionTime = 1.96 s  ClockTime = 5 s

Time = 10.4

DICPCG:  Solving for T, Initial residual = 0.0006265402547394269, Final residual = 2.053269256689909e-13, No Iterations 3

ExecutionTime = 1.97 s  ClockTime = 5 s

Time = 10.5

DICPCG:  Solving for T, Initial residual = 0.0006358558331439086, Final residual = 2.072764502771798e-13, No Iterations 3

ExecutionTime = 1.99 s  ClockTime = 5 s

Time = 10.6

DICPCG:  Solving for T, Initial residual = 0.0006451206899848776, Final residual = 2.091769663386298e-13, No Iterations 3

ExecutionTime = 2.01 s  ClockTime = 5 s

Time = 10.7

DICPCG:  Solving for T, Initial residual = 0.000654329538149451, Final residual = 2.110301877955243e-13, No Iterations 3

ExecutionTime = 2.03 s  ClockTime = 5 s

Time = 10.8

DICPCG:  Solving for T, Initial residual = 0.0006634769082403963, Final residual = 2.128381962164889e-13, No Iterations 3

ExecutionTime = 2.05 s  ClockTime = 5 s

Time = 10.9

DICPCG:  Solving for T, Initial residual = 0.0006725573520300815, Final residual = 2.14592651867189e-13, No Iterations 3

ExecutionTime = 2.07 s  ClockTime = 5 s

Time = 11

DICPCG:  Solving for T, Initial residual = 0.0006815654918497197, Final residual = 2.162933890750263e-13, No Iterations 3

ExecutionTime = 2.08 s  ClockTime = 5 s

Time = 11.1

DICPCG:  Solving for T, Initial residual = 0.0006904957244304834, Final residual = 2.179382644731824e-13, No Iterations 3

ExecutionTime = 2.1 s  ClockTime = 6 s

Time = 11.2

DICPCG:  Solving for T, Initial residual = 0.0006993422200331935, Final residual = 2.195233445293091e-13, No Iterations 3

ExecutionTime = 2.12 s  ClockTime = 6 s

Time = 11.3

DICPCG:  Solving for T, Initial residual = 0.0007080992320229249, Final residual = 2.210471985819917e-13, No Iterations 3

ExecutionTime = 2.13 s  ClockTime = 6 s

Time = 11.4

DICPCG:  Solving for T, Initial residual = 0.000716761158474537, Final residual = 2.225077321946138e-13, No Iterations 3

ExecutionTime = 2.15 s  ClockTime = 6 s

Time = 11.5

DICPCG:  Solving for T, Initial residual = 0.0007253222630056983, Final residual = 2.239048163873076e-13, No Iterations 3

ExecutionTime = 2.18 s  ClockTime = 6 s

Time = 11.6

DICPCG:  Solving for T, Initial residual = 0.0007337767134805389, Final residual = 2.252348115137741e-13, No Iterations 3

ExecutionTime = 2.19 s  ClockTime = 6 s

Time = 11.7

DICPCG:  Solving for T, Initial residual = 0.0007421184224743047, Final residual = 2.264952104116725e-13, No Iterations 3

ExecutionTime = 2.21 s  ClockTime = 6 s

Time = 11.8

DICPCG:  Solving for T, Initial residual = 0.0007503413162586303, Final residual = 2.276860149502712e-13, No Iterations 3

ExecutionTime = 2.23 s  ClockTime = 6 s

Time = 11.9

DICPCG:  Solving for T, Initial residual = 0.0007584393723572991, Final residual = 2.288039736868778e-13, No Iterations 3

ExecutionTime = 2.25 s  ClockTime = 6 s

Time = 12

DICPCG:  Solving for T, Initial residual = 0.0007664066316709072, Final residual = 2.298461253477027e-13, No Iterations 3

ExecutionTime = 2.26 s  ClockTime = 6 s

Time = 12.1

DICPCG:  Solving for T, Initial residual = 0.0007742370670977577, Final residual = 2.308106929932013e-13, No Iterations 3

ExecutionTime = 2.28 s  ClockTime = 6 s

Time = 12.2

DICPCG:  Solving for T, Initial residual = 0.0007819243269263098, Final residual = 2.316973191563994e-13, No Iterations 3

ExecutionTime = 2.3 s  ClockTime = 6 s

Time = 12.3

DICPCG:  Solving for T, Initial residual = 0.0007894621581717955, Final residual = 2.325018411851503e-13, No Iterations 3

ExecutionTime = 2.31 s  ClockTime = 6 s

Time = 12.4

DICPCG:  Solving for T, Initial residual = 0.0007968441241942659, Final residual = 2.332225203580915e-13, No Iterations 3

ExecutionTime = 2.33 s  ClockTime = 6 s

Time = 12.5

DICPCG:  Solving for T, Initial residual = 0.0008040642493677976, Final residual = 2.338592207347538e-13, No Iterations 3

ExecutionTime = 2.35 s  ClockTime = 6 s

Time = 12.6

DICPCG:  Solving for T, Initial residual = 0.000811116335525618, Final residual = 2.344077399941603e-13, No Iterations 3

ExecutionTime = 2.36 s  ClockTime = 6 s

Time = 12.7

DICPCG:  Solving for T, Initial residual = 0.0008179939793892615, Final residual = 2.348679504308988e-13, No Iterations 3

ExecutionTime = 2.38 s  ClockTime = 6 s

Time = 12.8

DICPCG:  Solving for T, Initial residual = 0.0008246907156699675, Final residual = 2.35237766922178e-13, No Iterations 3

ExecutionTime = 2.4 s  ClockTime = 6 s

Time = 12.9

DICPCG:  Solving for T, Initial residual = 0.0008312002080334027, Final residual = 2.355172567421345e-13, No Iterations 3

ExecutionTime = 2.42 s  ClockTime = 6 s

Time = 13

DICPCG:  Solving for T, Initial residual = 0.0008375161601689353, Final residual = 2.357031710075994e-13, No Iterations 3

ExecutionTime = 2.44 s  ClockTime = 6 s

Time = 13.1

DICPCG:  Solving for T, Initial residual = 0.0008436322234808962, Final residual = 2.357912635236704e-13, No Iterations 3

ExecutionTime = 2.45 s  ClockTime = 6 s

Time = 13.2

DICPCG:  Solving for T, Initial residual = 0.0008495421034681997, Final residual = 2.357795022274759e-13, No Iterations 3

ExecutionTime = 2.47 s  ClockTime = 7 s

Time = 13.3

DICPCG:  Solving for T, Initial residual = 0.0008552392404661295, Final residual = 2.356668830065927e-13, No Iterations 3

ExecutionTime = 2.5 s  ClockTime = 7 s

Time = 13.4

DICPCG:  Solving for T, Initial residual = 0.000860717173031022, Final residual = 2.35451246645861e-13, No Iterations 3

ExecutionTime = 2.51 s  ClockTime = 7 s

Time = 13.5

DICPCG:  Solving for T, Initial residual = 0.0008659694962575131, Final residual = 2.351304096939041e-13, No Iterations 3

ExecutionTime = 2.53 s  ClockTime = 7 s

Time = 13.6

DICPCG:  Solving for T, Initial residual = 0.0008709899537990351, Final residual = 2.347052427141591e-13, No Iterations 3

ExecutionTime = 2.54 s  ClockTime = 7 s

Time = 13.7

DICPCG:  Solving for T, Initial residual = 0.000875772064075889, Final residual = 2.341722294742641e-13, No Iterations 3

ExecutionTime = 2.56 s  ClockTime = 7 s

Time = 13.8

DICPCG:  Solving for T, Initial residual = 0.0008803094046701702, Final residual = 2.335293489770637e-13, No Iterations 3

ExecutionTime = 2.58 s  ClockTime = 7 s

Time = 13.9

DICPCG:  Solving for T, Initial residual = 0.0008845954136716223, Final residual = 2.327750346411594e-13, No Iterations 3

ExecutionTime = 2.6 s  ClockTime = 7 s

Time = 14

DICPCG:  Solving for T, Initial residual = 0.0008886240234040143, Final residual = 2.319088024339897e-13, No Iterations 3

ExecutionTime = 2.61 s  ClockTime = 7 s

Time = 14.1

DICPCG:  Solving for T, Initial residual = 0.0008923888982087853, Final residual = 2.309339614972764e-13, No Iterations 3

ExecutionTime = 2.63 s  ClockTime = 7 s

Time = 14.2

DICPCG:  Solving for T, Initial residual = 0.0008958837654905557, Final residual = 2.298564799527955e-13, No Iterations 3

ExecutionTime = 2.65 s  ClockTime = 7 s

Time = 14.3

DICPCG:  Solving for T, Initial residual = 0.0008991024177628888, Final residual = 2.286718306094225e-13, No Iterations 3

ExecutionTime = 2.66 s  ClockTime = 7 s

Time = 14.4

DICPCG:  Solving for T, Initial residual = 0.0009020384803204883, Final residual = 2.273829176597773e-13, No Iterations 3

ExecutionTime = 2.69 s  ClockTime = 7 s

Time = 14.5

DICPCG:  Solving for T, Initial residual = 0.0009046858083694979, Final residual = 2.259788970285868e-13, No Iterations 3

ExecutionTime = 2.71 s  ClockTime = 7 s

Time = 14.6

DICPCG:  Solving for T, Initial residual = 0.0009070383251746725, Final residual = 2.244521386805166e-13, No Iterations 3

ExecutionTime = 2.72 s  ClockTime = 7 s

Time = 14.7

DICPCG:  Solving for T, Initial residual = 0.0009090900177239985, Final residual = 2.22799485533285e-13, No Iterations 3

ExecutionTime = 2.74 s  ClockTime = 7 s

Time = 14.8

DICPCG:  Solving for T, Initial residual = 0.0009108349378853663, Final residual = 2.210199132177349e-13, No Iterations 3

ExecutionTime = 2.75 s  ClockTime = 7 s

Time = 14.9

DICPCG:  Solving for T, Initial residual = 0.0009122670738208761, Final residual = 2.191143045513997e-13, No Iterations 3

ExecutionTime = 2.77 s  ClockTime = 7 s

Time = 15

DICPCG:  Solving for T, Initial residual = 0.0009133804960464344, Final residual = 2.170796131745402e-13, No Iterations 3

ExecutionTime = 2.79 s  ClockTime = 7 s

Time = 15.1

DICPCG:  Solving for T, Initial residual = 0.0009141694036450752, Final residual = 2.149136949757469e-13, No Iterations 3

ExecutionTime = 2.81 s  ClockTime = 7 s

Time = 15.2

DICPCG:  Solving for T, Initial residual = 0.0009146280709007737, Final residual = 2.126276978809139e-13, No Iterations 3

ExecutionTime = 2.83 s  ClockTime = 8 s

Time = 15.3

DICPCG:  Solving for T, Initial residual = 0.0009147507295140453, Final residual = 2.102318684354644e-13, No Iterations 3

ExecutionTime = 2.84 s  ClockTime = 8 s

Time = 15.4

DICPCG:  Solving for T, Initial residual = 0.0009145317337601271, Final residual = 2.077295549456343e-13, No Iterations 3

ExecutionTime = 2.86 s  ClockTime = 8 s

Time = 15.5

DICPCG:  Solving for T, Initial residual = 0.0009139657323345135, Final residual = 2.050993677246595e-13, No Iterations 3

ExecutionTime = 2.88 s  ClockTime = 8 s

Time = 15.6

DICPCG:  Solving for T, Initial residual = 0.0009130472254250885, Final residual = 2.023436883481152e-13, No Iterations 3

ExecutionTime = 2.9 s  ClockTime = 8 s

Time = 15.7

DICPCG:  Solving for T, Initial residual = 0.0009117710244212097, Final residual = 1.994693909650307e-13, No Iterations 3

ExecutionTime = 2.91 s  ClockTime = 8 s

Time = 15.8

DICPCG:  Solving for T, Initial residual = 0.0009101318798981573, Final residual = 1.964691828159398e-13, No Iterations 3

ExecutionTime = 2.94 s  ClockTime = 8 s

Time = 15.9

DICPCG:  Solving for T, Initial residual = 0.0009081246910261343, Final residual = 1.933400371009007e-13, No Iterations 3

ExecutionTime = 2.96 s  ClockTime = 8 s

Time = 16

DICPCG:  Solving for T, Initial residual = 0.0009057444781235122, Final residual = 1.900769448377463e-13, No Iterations 3

ExecutionTime = 2.97 s  ClockTime = 8 s

Time = 16.1

DICPCG:  Solving for T, Initial residual = 0.0009029863775560592, Final residual = 1.867138744714038e-13, No Iterations 3

ExecutionTime = 2.99 s  ClockTime = 8 s

Time = 16.2

DICPCG:  Solving for T, Initial residual = 0.0008998456468910237, Final residual = 1.832269363452908e-13, No Iterations 3

ExecutionTime = 3 s  ClockTime = 8 s

Time = 16.3

DICPCG:  Solving for T, Initial residual = 0.0008963176588363978, Final residual = 1.795960634747192e-13, No Iterations 3

ExecutionTime = 3.02 s  ClockTime = 8 s

Time = 16.4

DICPCG:  Solving for T, Initial residual = 0.0008923978315109086, Final residual = 1.758336504907114e-13, No Iterations 3

ExecutionTime = 3.05 s  ClockTime = 8 s

Time = 16.5

DICPCG:  Solving for T, Initial residual = 0.0008880818701999093, Final residual = 1.719340678409641e-13, No Iterations 3

ExecutionTime = 3.06 s  ClockTime = 8 s

Time = 16.6

DICPCG:  Solving for T, Initial residual = 0.0008833655938067987, Final residual = 1.678901728765659e-13, No Iterations 3

ExecutionTime = 3.08 s  ClockTime = 8 s

Time = 16.7

DICPCG:  Solving for T, Initial residual = 0.0008782449356417017, Final residual = 1.636892790225779e-13, No Iterations 3

ExecutionTime = 3.09 s  ClockTime = 8 s

Time = 16.8

DICPCG:  Solving for T, Initial residual = 0.0008727159822760416, Final residual = 1.593268938209571e-13, No Iterations 3

ExecutionTime = 3.11 s  ClockTime = 8 s

Time = 16.9

DICPCG:  Solving for T, Initial residual = 0.0008667749213275922, Final residual = 1.54837621645976e-13, No Iterations 3

ExecutionTime = 3.13 s  ClockTime = 8 s

Time = 17

DICPCG:  Solving for T, Initial residual = 0.0008604181395354434, Final residual = 1.501841603322701e-13, No Iterations 3

ExecutionTime = 3.15 s  ClockTime = 8 s

Time = 17.1

DICPCG:  Solving for T, Initial residual = 0.0008536422992763141, Final residual = 1.454212001867562e-13, No Iterations 3

ExecutionTime = 3.17 s  ClockTime = 8 s

Time = 17.2

DICPCG:  Solving for T, Initial residual = 0.0008464441613847948, Final residual = 1.405715129038568e-13, No Iterations 3

ExecutionTime = 3.19 s  ClockTime = 8 s

Time = 17.3

DICPCG:  Solving for T, Initial residual = 0.0008388206605487477, Final residual = 1.35714303296343e-13, No Iterations 3

ExecutionTime = 3.2 s  ClockTime = 9 s

Time = 17.4

DICPCG:  Solving for T, Initial residual = 0.000830768917735907, Final residual = 1.306760502223512e-13, No Iterations 3

ExecutionTime = 3.22 s  ClockTime = 9 s

Time = 17.5

DICPCG:  Solving for T, Initial residual = 0.0008222862344519276, Final residual = 1.254417123084593e-13, No Iterations 3

ExecutionTime = 3.24 s  ClockTime = 9 s

Time = 17.6

DICPCG:  Solving for T, Initial residual = 0.0008133701177901501, Final residual = 1.200851687440026e-13, No Iterations 3

ExecutionTime = 3.25 s  ClockTime = 9 s

Time = 17.7

DICPCG:  Solving for T, Initial residual = 0.0008040183032213798, Final residual = 1.146329279346564e-13, No Iterations 3

ExecutionTime = 3.27 s  ClockTime = 9 s

Time = 17.8

DICPCG:  Solving for T, Initial residual = 0.0007942286992333187, Final residual = 1.089770338178515e-13, No Iterations 3

ExecutionTime = 3.29 s  ClockTime = 9 s

Time = 17.9

DICPCG:  Solving for T, Initial residual = 0.0007839993968266585, Final residual = 1.031335473896644e-13, No Iterations 3

ExecutionTime = 3.31 s  ClockTime = 9 s

Time = 18

DICPCG:  Solving for T, Initial residual = 0.0007733288085996907, Final residual = 9.722355631642898e-14, No Iterations 3

ExecutionTime = 3.33 s  ClockTime = 9 s

Time = 18.1

DICPCG:  Solving for T, Initial residual = 0.0007622155320975793, Final residual = 9.138505166403117e-14, No Iterations 3

ExecutionTime = 3.34 s  ClockTime = 9 s

Time = 18.2

DICPCG:  Solving for T, Initial residual = 0.0007506583902479168, Final residual = 8.631391296097029e-14, No Iterations 3

ExecutionTime = 3.36 s  ClockTime = 9 s

Time = 18.3

DICPCG:  Solving for T, Initial residual = 0.0007386564462583751, Final residual = 8.432003948305424e-14, No Iterations 3

ExecutionTime = 3.38 s  ClockTime = 9 s

Time = 18.4

DICPCG:  Solving for T, Initial residual = 0.0007262090100174858, Final residual = 8.605152763865629e-14, No Iterations 3

ExecutionTime = 3.4 s  ClockTime = 9 s

Time = 18.5

DICPCG:  Solving for T, Initial residual = 0.0007133156085979112, Final residual = 8.885028275685558e-14, No Iterations 3

ExecutionTime = 3.41 s  ClockTime = 9 s

Time = 18.6

DICPCG:  Solving for T, Initial residual = 0.0006999760547328337, Final residual = 9.209687575288449e-14, No Iterations 3

ExecutionTime = 3.43 s  ClockTime = 9 s

Time = 18.7

DICPCG:  Solving for T, Initial residual = 0.0006861904143058752, Final residual = 9.536186301560955e-14, No Iterations 3

ExecutionTime = 3.45 s  ClockTime = 9 s

Time = 18.8

DICPCG:  Solving for T, Initial residual = 0.0006719590806925753, Final residual = 9.883248925571042e-14, No Iterations 3

ExecutionTime = 3.47 s  ClockTime = 9 s

Time = 18.9

DICPCG:  Solving for T, Initial residual = 0.0006572827257703657, Final residual = 1.023527319390643e-13, No Iterations 3

ExecutionTime = 3.48 s  ClockTime = 9 s

Time = 19

DICPCG:  Solving for T, Initial residual = 0.0006428372523846777, Final residual = 1.061389197801655e-13, No Iterations 3

ExecutionTime = 3.5 s  ClockTime = 9 s

Time = 19.1

DICPCG:  Solving for T, Initial residual = 0.0006367129182982765, Final residual = 1.099994007089525e-13, No Iterations 3

ExecutionTime = 3.52 s  ClockTime = 9 s

Time = 19.2

DICPCG:  Solving for T, Initial residual = 0.0006302703602265591, Final residual = 1.139150149116988e-13, No Iterations 3

ExecutionTime = 3.54 s  ClockTime = 9 s

Time = 19.3

DICPCG:  Solving for T, Initial residual = 0.0006234984361617375, Final residual = 1.177174772773105e-13, No Iterations 3

ExecutionTime = 3.56 s  ClockTime = 10 s

Time = 19.4

DICPCG:  Solving for T, Initial residual = 0.0006163950906466884, Final residual = 1.215654701286272e-13, No Iterations 3

ExecutionTime = 3.58 s  ClockTime = 10 s

Time = 19.5

DICPCG:  Solving for T, Initial residual = 0.0006089582123824606, Final residual = 1.255283589640296e-13, No Iterations 3

ExecutionTime = 3.59 s  ClockTime = 10 s

Time = 19.6

DICPCG:  Solving for T, Initial residual = 0.0006011859022176264, Final residual = 1.294279673719435e-13, No Iterations 3

ExecutionTime = 3.61 s  ClockTime = 10 s

Time = 19.7

DICPCG:  Solving for T, Initial residual = 0.0005930763955166571, Final residual = 1.33292653612109e-13, No Iterations 3

ExecutionTime = 3.63 s  ClockTime = 10 s

Time = 19.8

DICPCG:  Solving for T, Initial residual = 0.0005846280333185397, Final residual = 1.371435552887873e-13, No Iterations 3

ExecutionTime = 3.65 s  ClockTime = 10 s

Time = 19.9

DICPCG:  Solving for T, Initial residual = 0.0005758394444549822, Final residual = 1.410255322780758e-13, No Iterations 3

ExecutionTime = 3.66 s  ClockTime = 10 s

Time = 20

DICPCG:  Solving for T, Initial residual = 0.000571016883329396, Final residual = 1.449379735854708e-13, No Iterations 3

ExecutionTime = 3.68 s  ClockTime = 10 s

Time = 20.1

DICPCG:  Solving for T, Initial residual = 0.0005692929443009972, Final residual = 1.489293401117272e-13, No Iterations 3

ExecutionTime = 3.7 s  ClockTime = 10 s

Time = 20.2

DICPCG:  Solving for T, Initial residual = 0.0005673140583087899, Final residual = 1.530336269363068e-13, No Iterations 3

ExecutionTime = 3.71 s  ClockTime = 10 s

Time = 20.3

DICPCG:  Solving for T, Initial residual = 0.0005650759784622617, Final residual = 1.573780092842847e-13, No Iterations 3

ExecutionTime = 3.73 s  ClockTime = 10 s

Time = 20.4

DICPCG:  Solving for T, Initial residual = 0.0005625743560874241, Final residual = 1.619264986972894e-13, No Iterations 3

ExecutionTime = 3.75 s  ClockTime = 10 s

Time = 20.5

DICPCG:  Solving for T, Initial residual = 0.0005598050754037879, Final residual = 1.667826910875902e-13, No Iterations 3

ExecutionTime = 3.77 s  ClockTime = 10 s

Time = 20.6

DICPCG:  Solving for T, Initial residual = 0.0005577563015734723, Final residual = 1.718246973587301e-13, No Iterations 3

ExecutionTime = 3.79 s  ClockTime = 10 s

Time = 20.7

DICPCG:  Solving for T, Initial residual = 0.0005611314241354936, Final residual = 1.770125681082931e-13, No Iterations 3

ExecutionTime = 3.81 s  ClockTime = 10 s

Time = 20.8

DICPCG:  Solving for T, Initial residual = 0.0005643027114211072, Final residual = 1.822788308860445e-13, No Iterations 3

ExecutionTime = 3.83 s  ClockTime = 10 s

Time = 20.9

DICPCG:  Solving for T, Initial residual = 0.0005672632057119275, Final residual = 1.876685992318287e-13, No Iterations 3

ExecutionTime = 3.84 s  ClockTime = 10 s

Time = 21

DICPCG:  Solving for T, Initial residual = 0.0005700058612187423, Final residual = 1.9312908231309e-13, No Iterations 3

ExecutionTime = 3.86 s  ClockTime = 10 s

Time = 21.1

DICPCG:  Solving for T, Initial residual = 0.0005725234101363434, Final residual = 1.985153998441848e-13, No Iterations 3

ExecutionTime = 3.87 s  ClockTime = 10 s

Time = 21.2

DICPCG:  Solving for T, Initial residual = 0.0005748086173796784, Final residual = 2.038652132620094e-13, No Iterations 3

ExecutionTime = 3.89 s  ClockTime = 10 s

Time = 21.3

DICPCG:  Solving for T, Initial residual = 0.0005807925105472039, Final residual = 2.10605397414478e-13, No Iterations 3

ExecutionTime = 3.91 s  ClockTime = 10 s

Time = 21.4

DICPCG:  Solving for T, Initial residual = 0.0005884390845046606, Final residual = 2.176166095334266e-13, No Iterations 3

ExecutionTime = 3.93 s  ClockTime = 11 s

Time = 21.5

DICPCG:  Solving for T, Initial residual = 0.0005958944846487503, Final residual = 2.246140263270844e-13, No Iterations 3

ExecutionTime = 3.95 s  ClockTime = 11 s

Time = 21.6

DICPCG:  Solving for T, Initial residual = 0.0006031483635396176, Final residual = 2.310904461509686e-13, No Iterations 3

ExecutionTime = 3.96 s  ClockTime = 11 s

Time = 21.7

DICPCG:  Solving for T, Initial residual = 0.0006101902460363316, Final residual = 2.370373470015389e-13, No Iterations 3

ExecutionTime = 3.98 s  ClockTime = 11 s

Time = 21.8

DICPCG:  Solving for T, Initial residual = 0.0006170094911834835, Final residual = 2.431716209876887e-13, No Iterations 3

ExecutionTime = 4 s  ClockTime = 11 s

Time = 21.9

DICPCG:  Solving for T, Initial residual = 0.0006243696684326277, Final residual = 2.490082265364723e-13, No Iterations 3

ExecutionTime = 4.02 s  ClockTime = 11 s

Time = 22

DICPCG:  Solving for T, Initial residual = 0.00063576663995783, Final residual = 2.543786682319865e-13, No Iterations 3

ExecutionTime = 4.03 s  ClockTime = 11 s

Time = 22.1

DICPCG:  Solving for T, Initial residual = 0.0006469643597443034, Final residual = 2.592396008582575e-13, No Iterations 3

ExecutionTime = 4.05 s  ClockTime = 11 s

Time = 22.2

DICPCG:  Solving for T, Initial residual = 0.0006579481078293828, Final residual = 2.636866407300055e-13, No Iterations 3

ExecutionTime = 4.07 s  ClockTime = 11 s

Time = 22.3

DICPCG:  Solving for T, Initial residual = 0.000668704134784843, Final residual = 2.677728999512946e-13, No Iterations 3

ExecutionTime = 4.09 s  ClockTime = 11 s

Time = 22.4

DICPCG:  Solving for T, Initial residual = 0.0006792182645940227, Final residual = 2.721142736304817e-13, No Iterations 3

ExecutionTime = 4.11 s  ClockTime = 11 s

Time = 22.5

DICPCG:  Solving for T, Initial residual = 0.0006894761472107027, Final residual = 2.770445859432923e-13, No Iterations 3

ExecutionTime = 4.12 s  ClockTime = 11 s

Time = 22.6

DICPCG:  Solving for T, Initial residual = 0.0007019896346072847, Final residual = 2.817220527696192e-13, No Iterations 3

ExecutionTime = 4.14 s  ClockTime = 11 s

Time = 22.7

DICPCG:  Solving for T, Initial residual = 0.0007161124944570073, Final residual = 2.861875589771562e-13, No Iterations 3

ExecutionTime = 4.15 s  ClockTime = 11 s

Time = 22.8

DICPCG:  Solving for T, Initial residual = 0.0007299794287057602, Final residual = 2.905122644419732e-13, No Iterations 3

ExecutionTime = 4.17 s  ClockTime = 11 s

Time = 22.9

DICPCG:  Solving for T, Initial residual = 0.0007435732871310669, Final residual = 2.947397664633317e-13, No Iterations 3

ExecutionTime = 4.2 s  ClockTime = 11 s

Time = 23

DICPCG:  Solving for T, Initial residual = 0.0007568766849640584, Final residual = 2.998656636320401e-13, No Iterations 3

ExecutionTime = 4.21 s  ClockTime = 11 s

Time = 23.1

DICPCG:  Solving for T, Initial residual = 0.0007698718044912794, Final residual = 3.049707932298821e-13, No Iterations 3

ExecutionTime = 4.23 s  ClockTime = 11 s

Time = 23.2

DICPCG:  Solving for T, Initial residual = 0.0007825883209824783, Final residual = 3.09918421014262e-13, No Iterations 3

ExecutionTime = 4.25 s  ClockTime = 11 s

Time = 23.3

DICPCG:  Solving for T, Initial residual = 0.0007985240232421406, Final residual = 3.146406344122811e-13, No Iterations 3

ExecutionTime = 4.26 s  ClockTime = 11 s

Time = 23.4

DICPCG:  Solving for T, Initial residual = 0.0008143468615953698, Final residual = 3.191701934879732e-13, No Iterations 3

ExecutionTime = 4.28 s  ClockTime = 11 s

Time = 23.5

DICPCG:  Solving for T, Initial residual = 0.0008298214322481075, Final residual = 3.241404357953205e-13, No Iterations 3

ExecutionTime = 4.29 s  ClockTime = 12 s

Time = 23.6

DICPCG:  Solving for T, Initial residual = 0.0008449270176403972, Final residual = 3.291506220682963e-13, No Iterations 3

ExecutionTime = 4.31 s  ClockTime = 12 s

Time = 23.7

DICPCG:  Solving for T, Initial residual = 0.0008596427529411213, Final residual = 3.339395538220247e-13, No Iterations 3

ExecutionTime = 4.34 s  ClockTime = 12 s

Time = 23.8

DICPCG:  Solving for T, Initial residual = 0.0008739461261055777, Final residual = 3.384682377008189e-13, No Iterations 3

ExecutionTime = 4.36 s  ClockTime = 12 s

Time = 23.9

DICPCG:  Solving for T, Initial residual = 0.0008888608574955086, Final residual = 3.427773087139902e-13, No Iterations 3

ExecutionTime = 4.37 s  ClockTime = 12 s

Time = 24

DICPCG:  Solving for T, Initial residual = 0.0009056243670617367, Final residual = 3.473373904088394e-13, No Iterations 3

ExecutionTime = 4.39 s  ClockTime = 12 s

Time = 24.1

DICPCG:  Solving for T, Initial residual = 0.0009219383531891618, Final residual = 3.518831724373622e-13, No Iterations 3

ExecutionTime = 4.41 s  ClockTime = 12 s

Time = 24.2

DICPCG:  Solving for T, Initial residual = 0.0009377777164161326, Final residual = 3.561645830197775e-13, No Iterations 3

ExecutionTime = 4.43 s  ClockTime = 12 s

Time = 24.3

DICPCG:  Solving for T, Initial residual = 0.0009531180625848453, Final residual = 3.601817239053842e-13, No Iterations 3

ExecutionTime = 4.44 s  ClockTime = 12 s

Time = 24.4

DICPCG:  Solving for T, Initial residual = 0.0009679329094217457, Final residual = 3.639144668854209e-13, No Iterations 3

ExecutionTime = 4.46 s  ClockTime = 12 s

Time = 24.5

DICPCG:  Solving for T, Initial residual = 0.0009821961457566841, Final residual = 3.677993772889826e-13, No Iterations 3

ExecutionTime = 4.48 s  ClockTime = 12 s

Time = 24.6

DICPCG:  Solving for T, Initial residual = 0.0009978550481804863, Final residual = 3.714649771008218e-13, No Iterations 3

ExecutionTime = 4.5 s  ClockTime = 12 s

Time = 24.7

DICPCG:  Solving for T, Initial residual = 0.00101387462050595, Final residual = 3.748536813416994e-13, No Iterations 3

ExecutionTime = 4.51 s  ClockTime = 12 s

Time = 24.8

DICPCG:  Solving for T, Initial residual = 0.001029290233115259, Final residual = 3.778929441825844e-13, No Iterations 3

ExecutionTime = 4.53 s  ClockTime = 12 s

Time = 24.9

DICPCG:  Solving for T, Initial residual = 0.001044073131517037, Final residual = 3.807255984905231e-13, No Iterations 3

ExecutionTime = 4.54 s  ClockTime = 12 s

Time = 25

DICPCG:  Solving for T, Initial residual = 0.00105819342667971, Final residual = 3.835205417897321e-13, No Iterations 3

ExecutionTime = 4.56 s  ClockTime = 12 s

Time = 25.1

DICPCG:  Solving for T, Initial residual = 0.001071622671383664, Final residual = 3.85939294079994e-13, No Iterations 3

ExecutionTime = 4.58 s  ClockTime = 12 s

Time = 25.2

DICPCG:  Solving for T, Initial residual = 0.00108456909074182, Final residual = 3.879748699811868e-13, No Iterations 3

ExecutionTime = 4.6 s  ClockTime = 12 s

Time = 25.3

DICPCG:  Solving for T, Initial residual = 0.001099069358590711, Final residual = 3.897364360758538e-13, No Iterations 3

ExecutionTime = 4.62 s  ClockTime = 12 s

Time = 25.4

DICPCG:  Solving for T, Initial residual = 0.001112825855560175, Final residual = 3.914174220477841e-13, No Iterations 3

ExecutionTime = 4.64 s  ClockTime = 12 s

Time = 25.5

DICPCG:  Solving for T, Initial residual = 0.001125794253297827, Final residual = 3.926892246706435e-13, No Iterations 3

ExecutionTime = 4.65 s  ClockTime = 12 s

Time = 25.6

DICPCG:  Solving for T, Initial residual = 0.001137943670041389, Final residual = 3.93546636405389e-13, No Iterations 3

ExecutionTime = 4.67 s  ClockTime = 13 s

Time = 25.7

DICPCG:  Solving for T, Initial residual = 0.001149243152375984, Final residual = 3.942986562916893e-13, No Iterations 3

ExecutionTime = 4.69 s  ClockTime = 13 s

Time = 25.8

DICPCG:  Solving for T, Initial residual = 0.001159664894638075, Final residual = 3.948200191412133e-13, No Iterations 3

ExecutionTime = 4.71 s  ClockTime = 13 s

Time = 25.9

DICPCG:  Solving for T, Initial residual = 0.00117052945898148, Final residual = 3.95114993776875e-13, No Iterations 3

ExecutionTime = 4.72 s  ClockTime = 13 s

Time = 26

DICPCG:  Solving for T, Initial residual = 0.001181341972857597, Final residual = 3.94937125733899e-13, No Iterations 3

ExecutionTime = 4.74 s  ClockTime = 13 s

Time = 26.1

DICPCG:  Solving for T, Initial residual = 0.001191202252556751, Final residual = 3.943024081495567e-13, No Iterations 3

ExecutionTime = 4.76 s  ClockTime = 13 s

Time = 26.2

DICPCG:  Solving for T, Initial residual = 0.001200079376614142, Final residual = 3.931701952413094e-13, No Iterations 3

ExecutionTime = 4.78 s  ClockTime = 13 s

Time = 26.3

DICPCG:  Solving for T, Initial residual = 0.001207943439078726, Final residual = 3.915308269234579e-13, No Iterations 3

ExecutionTime = 4.8 s  ClockTime = 13 s

Time = 26.4

DICPCG:  Solving for T, Initial residual = 0.001214764926198286, Final residual = 3.894154718597905e-13, No Iterations 3

ExecutionTime = 4.82 s  ClockTime = 13 s

Time = 26.5

DICPCG:  Solving for T, Initial residual = 0.001221122339252195, Final residual = 3.868916526391152e-13, No Iterations 3

ExecutionTime = 4.83 s  ClockTime = 13 s

Time = 26.6

DICPCG:  Solving for T, Initial residual = 0.001227716032201016, Final residual = 3.838769734903108e-13, No Iterations 3

ExecutionTime = 4.85 s  ClockTime = 13 s

Time = 26.7

DICPCG:  Solving for T, Initial residual = 0.001233192354876045, Final residual = 3.803620070560203e-13, No Iterations 3

ExecutionTime = 4.87 s  ClockTime = 13 s

Time = 26.8

DICPCG:  Solving for T, Initial residual = 0.001237522275241649, Final residual = 3.763162765570833e-13, No Iterations 3

ExecutionTime = 4.89 s  ClockTime = 13 s

Time = 26.9

DICPCG:  Solving for T, Initial residual = 0.001240678181102926, Final residual = 3.717191328054642e-13, No Iterations 3

ExecutionTime = 4.91 s  ClockTime = 13 s

Time = 27

DICPCG:  Solving for T, Initial residual = 0.001242632568568958, Final residual = 3.666011317212969e-13, No Iterations 3

ExecutionTime = 4.92 s  ClockTime = 13 s

Time = 27.1

DICPCG:  Solving for T, Initial residual = 0.001243865292165215, Final residual = 3.609564128133598e-13, No Iterations 3

ExecutionTime = 4.94 s  ClockTime = 13 s

Time = 27.2

DICPCG:  Solving for T, Initial residual = 0.001245033185867702, Final residual = 3.547575866648867e-13, No Iterations 3

ExecutionTime = 4.96 s  ClockTime = 13 s

Time = 27.3

DICPCG:  Solving for T, Initial residual = 0.001244932516323779, Final residual = 3.480194400346551e-13, No Iterations 3

ExecutionTime = 4.97 s  ClockTime = 13 s

Time = 27.4

DICPCG:  Solving for T, Initial residual = 0.001243542362928093, Final residual = 3.40763235745712e-13, No Iterations 3

ExecutionTime = 4.99 s  ClockTime = 13 s

Time = 27.5

DICPCG:  Solving for T, Initial residual = 0.001240838729290876, Final residual = 3.329440055197746e-13, No Iterations 3

ExecutionTime = 5.01 s  ClockTime = 13 s

Time = 27.6

DICPCG:  Solving for T, Initial residual = 0.001236800264190259, Final residual = 3.245827103813759e-13, No Iterations 3

ExecutionTime = 5.02 s  ClockTime = 14 s

Time = 27.7

DICPCG:  Solving for T, Initial residual = 0.001232383912660186, Final residual = 3.15786895468322e-13, No Iterations 3

ExecutionTime = 5.04 s  ClockTime = 14 s

Time = 27.8

DICPCG:  Solving for T, Initial residual = 0.001227088503682552, Final residual = 3.06435826048715e-13, No Iterations 3

ExecutionTime = 5.06 s  ClockTime = 14 s

Time = 27.9

DICPCG:  Solving for T, Initial residual = 0.001220412348061054, Final residual = 2.966330315341124e-13, No Iterations 3

ExecutionTime = 5.08 s  ClockTime = 14 s

Time = 28

DICPCG:  Solving for T, Initial residual = 0.00121233943747818, Final residual = 2.863005385561477e-13, No Iterations 3

ExecutionTime = 5.1 s  ClockTime = 14 s

Time = 28.1

DICPCG:  Solving for T, Initial residual = 0.001202856606213058, Final residual = 2.754055275823213e-13, No Iterations 3

ExecutionTime = 5.12 s  ClockTime = 14 s

Time = 28.2

DICPCG:  Solving for T, Initial residual = 0.001192606035483951, Final residual = 2.641807378197494e-13, No Iterations 3

ExecutionTime = 5.13 s  ClockTime = 14 s

Time = 28.3

DICPCG:  Solving for T, Initial residual = 0.001181532013021145, Final residual = 2.526204461097773e-13, No Iterations 3

ExecutionTime = 5.15 s  ClockTime = 14 s

Time = 28.4

DICPCG:  Solving for T, Initial residual = 0.001169026509679877, Final residual = 2.406314565311972e-13, No Iterations 3

ExecutionTime = 5.17 s  ClockTime = 14 s

Time = 28.5

DICPCG:  Solving for T, Initial residual = 0.001155084076339189, Final residual = 2.28108727887396e-13, No Iterations 3

ExecutionTime = 5.18 s  ClockTime = 14 s

Time = 28.6

DICPCG:  Solving for T, Initial residual = 0.001139726681269865, Final residual = 2.152729821049134e-13, No Iterations 3

ExecutionTime = 5.2 s  ClockTime = 14 s

Time = 28.7

DICPCG:  Solving for T, Initial residual = 0.001123889051934665, Final residual = 2.018546210413529e-13, No Iterations 3

ExecutionTime = 5.22 s  ClockTime = 14 s

Time = 28.8

DICPCG:  Solving for T, Initial residual = 0.00110668982353237, Final residual = 1.877100297026532e-13, No Iterations 3

ExecutionTime = 5.23 s  ClockTime = 14 s

Time = 28.9

DICPCG:  Solving for T, Initial residual = 0.001088059188410004, Final residual = 1.728671012078493e-13, No Iterations 3

ExecutionTime = 5.26 s  ClockTime = 14 s

Time = 29

DICPCG:  Solving for T, Initial residual = 0.001068056811654185, Final residual = 1.578311884319347e-13, No Iterations 3

ExecutionTime = 5.27 s  ClockTime = 14 s

Time = 29.1

DICPCG:  Solving for T, Initial residual = 0.001047449239039714, Final residual = 1.434967995334436e-13, No Iterations 3

ExecutionTime = 5.29 s  ClockTime = 14 s

Time = 29.2

DICPCG:  Solving for T, Initial residual = 0.00102545024771017, Final residual = 1.397435249756766e-13, No Iterations 3

ExecutionTime = 5.31 s  ClockTime = 14 s

Time = 29.3

DICPCG:  Solving for T, Initial residual = 0.001002072489998714, Final residual = 1.462071354818138e-13, No Iterations 3

ExecutionTime = 5.32 s  ClockTime = 14 s

Time = 29.4

DICPCG:  Solving for T, Initial residual = 0.0009779143414373533, Final residual = 1.551242730091501e-13, No Iterations 3

ExecutionTime = 5.34 s  ClockTime = 14 s

Time = 29.5

DICPCG:  Solving for T, Initial residual = 0.0009525042881247814, Final residual = 1.638207997615935e-13, No Iterations 3

ExecutionTime = 5.35 s  ClockTime = 14 s

Time = 29.6

DICPCG:  Solving for T, Initial residual = 0.0009260218805940667, Final residual = 1.719558212612999e-13, No Iterations 3

ExecutionTime = 5.37 s  ClockTime = 14 s

Time = 29.7

DICPCG:  Solving for T, Initial residual = 0.0008985170658818989, Final residual = 1.811970650886247e-13, No Iterations 3

ExecutionTime = 5.39 s  ClockTime = 15 s

Time = 29.8

DICPCG:  Solving for T, Initial residual = 0.0008756430336197887, Final residual = 1.905218981566972e-13, No Iterations 3

ExecutionTime = 5.41 s  ClockTime = 15 s

Time = 29.9

DICPCG:  Solving for T, Initial residual = 0.0008686877089121025, Final residual = 1.991312803592616e-13, No Iterations 3

ExecutionTime = 5.43 s  ClockTime = 15 s

Time = 30

DICPCG:  Solving for T, Initial residual = 0.0008606591556853427, Final residual = 2.074995383257217e-13, No Iterations 3

ExecutionTime = 5.45 s  ClockTime = 15 s

Time = 30.1

DICPCG:  Solving for T, Initial residual = 0.0008515573594649763, Final residual = 2.155081545561736e-13, No Iterations 3

ExecutionTime = 5.46 s  ClockTime = 15 s

Time = 30.2

DICPCG:  Solving for T, Initial residual = 0.0008413845632138669, Final residual = 2.239497900034038e-13, No Iterations 3

ExecutionTime = 5.48 s  ClockTime = 15 s

Time = 30.3

DICPCG:  Solving for T, Initial residual = 0.0008301452468755162, Final residual = 2.320785707601296e-13, No Iterations 3

ExecutionTime = 5.5 s  ClockTime = 15 s

Time = 30.4

DICPCG:  Solving for T, Initial residual = 0.0008178459633774555, Final residual = 2.399274473261091e-13, No Iterations 3

ExecutionTime = 5.52 s  ClockTime = 15 s

Time = 30.5

DICPCG:  Solving for T, Initial residual = 0.0008044955849026567, Final residual = 2.47534779560451e-13, No Iterations 3

ExecutionTime = 5.54 s  ClockTime = 15 s

Time = 30.6

DICPCG:  Solving for T, Initial residual = 0.0007901051534976435, Final residual = 2.550713365011468e-13, No Iterations 3

ExecutionTime = 5.56 s  ClockTime = 15 s

Time = 30.7

DICPCG:  Solving for T, Initial residual = 0.0007886880229502154, Final residual = 2.627474838322941e-13, No Iterations 3

ExecutionTime = 5.57 s  ClockTime = 15 s

Time = 30.8

DICPCG:  Solving for T, Initial residual = 0.00078964645460527, Final residual = 2.705728937707874e-13, No Iterations 3

ExecutionTime = 5.59 s  ClockTime = 15 s

Time = 30.9

DICPCG:  Solving for T, Initial residual = 0.0007896381036870941, Final residual = 2.78683499845182e-13, No Iterations 3

ExecutionTime = 5.6 s  ClockTime = 15 s

Time = 31

DICPCG:  Solving for T, Initial residual = 0.0007886521545563007, Final residual = 2.871625061896997e-13, No Iterations 3

ExecutionTime = 5.63 s  ClockTime = 15 s

Time = 31.1

DICPCG:  Solving for T, Initial residual = 0.0007866800446928562, Final residual = 2.96156200980372e-13, No Iterations 3

ExecutionTime = 5.65 s  ClockTime = 15 s

Time = 31.2

DICPCG:  Solving for T, Initial residual = 0.0007860696084429303, Final residual = 3.052688579516114e-13, No Iterations 3

ExecutionTime = 5.66 s  ClockTime = 15 s

Time = 31.3

DICPCG:  Solving for T, Initial residual = 0.0007963723979841346, Final residual = 3.143164276355921e-13, No Iterations 3

ExecutionTime = 5.68 s  ClockTime = 15 s

Time = 31.4

DICPCG:  Solving for T, Initial residual = 0.0008056791589403622, Final residual = 3.238228514938105e-13, No Iterations 3

ExecutionTime = 5.7 s  ClockTime = 15 s

Time = 31.5

DICPCG:  Solving for T, Initial residual = 0.0008139634024496028, Final residual = 3.368622118288325e-13, No Iterations 3

ExecutionTime = 5.71 s  ClockTime = 15 s

Time = 31.6

DICPCG:  Solving for T, Initial residual = 0.0008212000202280586, Final residual = 3.501556810654578e-13, No Iterations 3

ExecutionTime = 5.73 s  ClockTime = 15 s

Time = 31.7

DICPCG:  Solving for T, Initial residual = 0.0008273656937819811, Final residual = 3.623409586800852e-13, No Iterations 3

ExecutionTime = 5.75 s  ClockTime = 16 s

Time = 31.8

DICPCG:  Solving for T, Initial residual = 0.0008380634806660992, Final residual = 3.727552902454439e-13, No Iterations 3

ExecutionTime = 5.76 s  ClockTime = 16 s

Time = 31.9

DICPCG:  Solving for T, Initial residual = 0.0008536829580216854, Final residual = 3.813467457591536e-13, No Iterations 3

ExecutionTime = 5.78 s  ClockTime = 16 s

Time = 32

DICPCG:  Solving for T, Initial residual = 0.0008681436682753726, Final residual = 3.881505623748395e-13, No Iterations 3

ExecutionTime = 5.8 s  ClockTime = 16 s

Time = 32.1

DICPCG:  Solving for T, Initial residual = 0.0008814085226886081, Final residual = 3.935508763423717e-13, No Iterations 3

ExecutionTime = 5.82 s  ClockTime = 16 s

Time = 32.2

DICPCG:  Solving for T, Initial residual = 0.0008934425862661905, Final residual = 3.999437467993232e-13, No Iterations 3

ExecutionTime = 5.83 s  ClockTime = 16 s

Time = 32.3

DICPCG:  Solving for T, Initial residual = 0.0009042140237806357, Final residual = 4.05388291459292e-13, No Iterations 3

ExecutionTime = 5.85 s  ClockTime = 16 s

Time = 32.4

DICPCG:  Solving for T, Initial residual = 0.0009208090216258638, Final residual = 4.097960772864296e-13, No Iterations 3

ExecutionTime = 5.87 s  ClockTime = 16 s

Time = 32.5

DICPCG:  Solving for T, Initial residual = 0.0009384235556846485, Final residual = 4.134027361069311e-13, No Iterations 3

ExecutionTime = 5.89 s  ClockTime = 16 s

Time = 32.6

DICPCG:  Solving for T, Initial residual = 0.0009546402422860558, Final residual = 4.165034914018979e-13, No Iterations 3

ExecutionTime = 5.91 s  ClockTime = 16 s

Time = 32.7

DICPCG:  Solving for T, Initial residual = 0.0009694201960403694, Final residual = 4.20903257420655e-13, No Iterations 3

ExecutionTime = 5.92 s  ClockTime = 16 s

Time = 32.8

DICPCG:  Solving for T, Initial residual = 0.0009827259504121973, Final residual = 4.245920238657061e-13, No Iterations 3

ExecutionTime = 5.94 s  ClockTime = 16 s

Time = 32.9

DICPCG:  Solving for T, Initial residual = 0.0009945225672741964, Final residual = 4.275807968398142e-13, No Iterations 3

ExecutionTime = 5.96 s  ClockTime = 16 s

Time = 33

DICPCG:  Solving for T, Initial residual = 0.0010121274272658, Final residual = 4.298693417285513e-13, No Iterations 3

ExecutionTime = 5.97 s  ClockTime = 16 s

Time = 33.1

DICPCG:  Solving for T, Initial residual = 0.001028431837931582, Final residual = 4.324455323942001e-13, No Iterations 3

ExecutionTime = 5.99 s  ClockTime = 16 s

Time = 33.2

DICPCG:  Solving for T, Initial residual = 0.001043079002773705, Final residual = 4.351040765008678e-13, No Iterations 3

ExecutionTime = 6.01 s  ClockTime = 16 s

Time = 33.3

DICPCG:  Solving for T, Initial residual = 0.001056032959823956, Final residual = 4.369336143627068e-13, No Iterations 3

ExecutionTime = 6.03 s  ClockTime = 16 s

Time = 33.4

DICPCG:  Solving for T, Initial residual = 0.001067261959380488, Final residual = 4.378286490364564e-13, No Iterations 3

ExecutionTime = 6.04 s  ClockTime = 16 s

Time = 33.5

DICPCG:  Solving for T, Initial residual = 0.001077328381985795, Final residual = 4.378818558468994e-13, No Iterations 3

ExecutionTime = 6.06 s  ClockTime = 16 s

Time = 33.6

DICPCG:  Solving for T, Initial residual = 0.001091174294114604, Final residual = 4.383623007496776e-13, No Iterations 3

ExecutionTime = 6.08 s  ClockTime = 16 s

Time = 33.7

DICPCG:  Solving for T, Initial residual = 0.001103161769857035, Final residual = 4.381230563669032e-13, No Iterations 3

ExecutionTime = 6.1 s  ClockTime = 16 s

Time = 33.8

DICPCG:  Solving for T, Initial residual = 0.00111326096037263, Final residual = 4.368778088850001e-13, No Iterations 3

ExecutionTime = 6.12 s  ClockTime = 17 s

Time = 33.9

DICPCG:  Solving for T, Initial residual = 0.001121446178977264, Final residual = 4.346345947667922e-13, No Iterations 3

ExecutionTime = 6.13 s  ClockTime = 17 s

Time = 34

DICPCG:  Solving for T, Initial residual = 0.001127693611579031, Final residual = 4.320462242008893e-13, No Iterations 3

ExecutionTime = 6.16 s  ClockTime = 17 s

Time = 34.1

DICPCG:  Solving for T, Initial residual = 0.001132721485755646, Final residual = 4.291508302344921e-13, No Iterations 3

ExecutionTime = 6.17 s  ClockTime = 17 s

Time = 34.2

DICPCG:  Solving for T, Initial residual = 0.001139955045513972, Final residual = 4.252424225860971e-13, No Iterations 3

ExecutionTime = 6.19 s  ClockTime = 17 s

Time = 34.3

DICPCG:  Solving for T, Initial residual = 0.001145150236969933, Final residual = 4.204101550230043e-13, No Iterations 3

ExecutionTime = 6.21 s  ClockTime = 17 s

Time = 34.4

DICPCG:  Solving for T, Initial residual = 0.00114829012389481, Final residual = 4.147292529879668e-13, No Iterations 3

ExecutionTime = 6.22 s  ClockTime = 17 s

Time = 34.5

DICPCG:  Solving for T, Initial residual = 0.001149361626397766, Final residual = 4.088126421220996e-13, No Iterations 3

ExecutionTime = 6.24 s  ClockTime = 17 s

Time = 34.6

DICPCG:  Solving for T, Initial residual = 0.001148358760271687, Final residual = 4.020450687647702e-13, No Iterations 3

ExecutionTime = 6.25 s  ClockTime = 17 s

Time = 34.7

DICPCG:  Solving for T, Initial residual = 0.00114571140228801, Final residual = 3.943335850918916e-13, No Iterations 3

ExecutionTime = 6.27 s  ClockTime = 17 s

Time = 34.8

DICPCG:  Solving for T, Initial residual = 0.001144469771054274, Final residual = 3.857700187451706e-13, No Iterations 3

ExecutionTime = 6.29 s  ClockTime = 17 s

Time = 34.9

DICPCG:  Solving for T, Initial residual = 0.001141104416662177, Final residual = 3.767930188084191e-13, No Iterations 3

ExecutionTime = 6.31 s  ClockTime = 17 s

Time = 35

DICPCG:  Solving for T, Initial residual = 0.001135616074842519, Final residual = 3.672318600058959e-13, No Iterations 3

ExecutionTime = 6.32 s  ClockTime = 17 s

Time = 35.1

DICPCG:  Solving for T, Initial residual = 0.001128010202510294, Final residual = 3.567637542908569e-13, No Iterations 3

ExecutionTime = 6.35 s  ClockTime = 17 s

Time = 35.2

DICPCG:  Solving for T, Initial residual = 0.00111829377844433, Final residual = 3.454256470582621e-13, No Iterations 3

ExecutionTime = 6.36 s  ClockTime = 17 s

Time = 35.3

DICPCG:  Solving for T, Initial residual = 0.001106482699345536, Final residual = 3.336299810472118e-13, No Iterations 3

ExecutionTime = 6.38 s  ClockTime = 17 s

Time = 35.4

DICPCG:  Solving for T, Initial residual = 0.001095631010060327, Final residual = 3.210803242476772e-13, No Iterations 3

ExecutionTime = 6.4 s  ClockTime = 17 s

Time = 35.5

DICPCG:  Solving for T, Initial residual = 0.001082743578752877, Final residual = 3.076394528774344e-13, No Iterations 3

ExecutionTime = 6.42 s  ClockTime = 17 s

Time = 35.6

DICPCG:  Solving for T, Initial residual = 0.001067769084135765, Final residual = 2.935845291054182e-13, No Iterations 3

ExecutionTime = 6.43 s  ClockTime = 17 s

Time = 35.7

DICPCG:  Solving for T, Initial residual = 0.00105073123345305, Final residual = 2.790189457804504e-13, No Iterations 3

ExecutionTime = 6.46 s  ClockTime = 17 s

Time = 35.8

DICPCG:  Solving for T, Initial residual = 0.001031653414573072, Final residual = 2.638828358524128e-13, No Iterations 3

ExecutionTime = 6.47 s  ClockTime = 17 s

Time = 35.9

DICPCG:  Solving for T, Initial residual = 0.001010567412678307, Final residual = 2.478949959400315e-13, No Iterations 3

ExecutionTime = 6.49 s  ClockTime = 18 s

Time = 36

DICPCG:  Solving for T, Initial residual = 0.0009894164295829661, Final residual = 2.313624794061728e-13, No Iterations 3

ExecutionTime = 6.51 s  ClockTime = 18 s

Time = 36.1

DICPCG:  Solving for T, Initial residual = 0.0009668498136004666, Final residual = 2.144071863672073e-13, No Iterations 3

ExecutionTime = 6.52 s  ClockTime = 18 s

Time = 36.2

DICPCG:  Solving for T, Initial residual = 0.0009423411741707591, Final residual = 1.966766877518885e-13, No Iterations 3

ExecutionTime = 6.54 s  ClockTime = 18 s

Time = 36.3

DICPCG:  Solving for T, Initial residual = 0.0009159314686614985, Final residual = 1.782952382651617e-13, No Iterations 3

ExecutionTime = 6.56 s  ClockTime = 18 s

Time = 36.4

DICPCG:  Solving for T, Initial residual = 0.0008876636784610695, Final residual = 1.585838123019971e-13, No Iterations 3

ExecutionTime = 6.58 s  ClockTime = 18 s

Time = 36.5

DICPCG:  Solving for T, Initial residual = 0.0008575845726071476, Final residual = 1.379291818706873e-13, No Iterations 3

ExecutionTime = 6.59 s  ClockTime = 18 s

Time = 36.6

DICPCG:  Solving for T, Initial residual = 0.0008268238621644498, Final residual = 1.182296187346905e-13, No Iterations 3

ExecutionTime = 6.61 s  ClockTime = 18 s

Time = 36.7

DICPCG:  Solving for T, Initial residual = 0.0007952055378214561, Final residual = 1.200643277370043e-13, No Iterations 3

ExecutionTime = 6.62 s  ClockTime = 18 s

Time = 36.8

DICPCG:  Solving for T, Initial residual = 0.0007618959100834405, Final residual = 1.324770018296374e-13, No Iterations 3

ExecutionTime = 6.65 s  ClockTime = 18 s

Time = 36.9

DICPCG:  Solving for T, Initial residual = 0.0007269503555668249, Final residual = 1.439202620272028e-13, No Iterations 3

ExecutionTime = 6.66 s  ClockTime = 18 s

Time = 37

DICPCG:  Solving for T, Initial residual = 0.0006904277421783622, Final residual = 1.543033827297842e-13, No Iterations 3

ExecutionTime = 6.68 s  ClockTime = 18 s

Time = 37.1

DICPCG:  Solving for T, Initial residual = 0.0006523898333637521, Final residual = 1.64925161914705e-13, No Iterations 3

ExecutionTime = 6.7 s  ClockTime = 18 s

Time = 37.2

DICPCG:  Solving for T, Initial residual = 0.0006367816656183535, Final residual = 1.750492931943058e-13, No Iterations 3

ExecutionTime = 6.72 s  ClockTime = 18 s

Time = 37.3

DICPCG:  Solving for T, Initial residual = 0.0006261759156053666, Final residual = 1.845549346919811e-13, No Iterations 3

ExecutionTime = 6.73 s  ClockTime = 18 s

Time = 37.4

DICPCG:  Solving for T, Initial residual = 0.0006142467997846878, Final residual = 1.928673514181496e-13, No Iterations 3

ExecutionTime = 6.75 s  ClockTime = 18 s

Time = 37.5

DICPCG:  Solving for T, Initial residual = 0.0006010087399764895, Final residual = 2.006168460612176e-13, No Iterations 3

ExecutionTime = 6.77 s  ClockTime = 18 s

Time = 37.6

DICPCG:  Solving for T, Initial residual = 0.0005864782261276312, Final residual = 2.081845132411186e-13, No Iterations 3

ExecutionTime = 6.79 s  ClockTime = 18 s

Time = 37.7

DICPCG:  Solving for T, Initial residual = 0.0005706738842916518, Final residual = 2.154586346055626e-13, No Iterations 3

ExecutionTime = 6.81 s  ClockTime = 18 s

Time = 37.8

DICPCG:  Solving for T, Initial residual = 0.0005542207906330997, Final residual = 2.218637909339422e-13, No Iterations 3

ExecutionTime = 6.83 s  ClockTime = 18 s

Time = 37.9

DICPCG:  Solving for T, Initial residual = 0.0005514648602112423, Final residual = 2.27665992660452e-13, No Iterations 3

ExecutionTime = 6.84 s  ClockTime = 19 s

Time = 38

DICPCG:  Solving for T, Initial residual = 0.0005539528645592686, Final residual = 2.348831541811664e-13, No Iterations 3

ExecutionTime = 6.86 s  ClockTime = 19 s

Time = 38.1

DICPCG:  Solving for T, Initial residual = 0.0005552741325882601, Final residual = 2.432806822776677e-13, No Iterations 3

ExecutionTime = 6.87 s  ClockTime = 19 s

Time = 38.2

DICPCG:  Solving for T, Initial residual = 0.0005554157121618028, Final residual = 2.560981117922317e-13, No Iterations 3

ExecutionTime = 6.89 s  ClockTime = 19 s

Time = 38.3

DICPCG:  Solving for T, Initial residual = 0.0005552539640260683, Final residual = 2.716843547388991e-13, No Iterations 3

ExecutionTime = 6.91 s  ClockTime = 19 s

Time = 38.4

DICPCG:  Solving for T, Initial residual = 0.0005704838754855619, Final residual = 2.868434695347005e-13, No Iterations 3

ExecutionTime = 6.93 s  ClockTime = 19 s

Time = 38.5

DICPCG:  Solving for T, Initial residual = 0.0005845842036236671, Final residual = 2.988768259483481e-13, No Iterations 3

ExecutionTime = 6.95 s  ClockTime = 19 s

Time = 38.6

DICPCG:  Solving for T, Initial residual = 0.0005974783635306812, Final residual = 3.090393364418474e-13, No Iterations 3

ExecutionTime = 6.96 s  ClockTime = 19 s

Time = 38.7

DICPCG:  Solving for T, Initial residual = 0.0006091279122054993, Final residual = 3.200874426268582e-13, No Iterations 3

ExecutionTime = 6.98 s  ClockTime = 19 s

Time = 38.8

DICPCG:  Solving for T, Initial residual = 0.0006254946297282997, Final residual = 3.300198870043673e-13, No Iterations 3

ExecutionTime = 7 s  ClockTime = 19 s

Time = 38.9

DICPCG:  Solving for T, Initial residual = 0.0006485419571283387, Final residual = 3.39625921197562e-13, No Iterations 3

ExecutionTime = 7.02 s  ClockTime = 19 s

Time = 39

DICPCG:  Solving for T, Initial residual = 0.0006702717961900792, Final residual = 3.521182991059126e-13, No Iterations 3

ExecutionTime = 7.03 s  ClockTime = 19 s

Time = 39.1

DICPCG:  Solving for T, Initial residual = 0.0006906238350717125, Final residual = 3.634618381455521e-13, No Iterations 3

ExecutionTime = 7.06 s  ClockTime = 19 s

Time = 39.2

DICPCG:  Solving for T, Initial residual = 0.0007095390672004064, Final residual = 3.738952650582008e-13, No Iterations 3

ExecutionTime = 7.07 s  ClockTime = 19 s

Time = 39.3

DICPCG:  Solving for T, Initial residual = 0.0007369200176155004, Final residual = 3.858961355618871e-13, No Iterations 3

ExecutionTime = 7.09 s  ClockTime = 19 s

Time = 39.4

DICPCG:  Solving for T, Initial residual = 0.0007639673850313247, Final residual = 3.970502603948548e-13, No Iterations 3

ExecutionTime = 7.1 s  ClockTime = 19 s

Time = 39.5

DICPCG:  Solving for T, Initial residual = 0.0007894350829730563, Final residual = 4.069723387187829e-13, No Iterations 3

ExecutionTime = 7.12 s  ClockTime = 19 s

Time = 39.6

DICPCG:  Solving for T, Initial residual = 0.0008134652358458098, Final residual = 4.174117580023145e-13, No Iterations 3

ExecutionTime = 7.14 s  ClockTime = 19 s

Time = 39.7

DICPCG:  Solving for T, Initial residual = 0.0008393256109446499, Final residual = 4.272782640591683e-13, No Iterations 3

ExecutionTime = 7.16 s  ClockTime = 19 s

Time = 39.8

DICPCG:  Solving for T, Initial residual = 0.0008684832855407681, Final residual = 4.361204767315522e-13, No Iterations 3

ExecutionTime = 7.18 s  ClockTime = 19 s

Time = 39.9

DICPCG:  Solving for T, Initial residual = 0.0008961503518789681, Final residual = 4.442028156955898e-13, No Iterations 3

ExecutionTime = 7.2 s  ClockTime = 19 s

Time = 40

DICPCG:  Solving for T, Initial residual = 0.0009220129330168656, Final residual = 4.518237905328272e-13, No Iterations 3

ExecutionTime = 7.21 s  ClockTime = 20 s

Time = 40.1

DICPCG:  Solving for T, Initial residual = 0.0009459971250068552, Final residual = 4.580935390008809e-13, No Iterations 3

ExecutionTime = 7.23 s  ClockTime = 20 s

Time = 40.2

DICPCG:  Solving for T, Initial residual = 0.0009741511320406289, Final residual = 4.630551795449156e-13, No Iterations 3

ExecutionTime = 7.25 s  ClockTime = 20 s

Time = 40.3

DICPCG:  Solving for T, Initial residual = 0.001000574622899185, Final residual = 4.677467821751255e-13, No Iterations 3

ExecutionTime = 7.26 s  ClockTime = 20 s

Time = 40.4

DICPCG:  Solving for T, Initial residual = 0.001024776821521441, Final residual = 4.712126313432805e-13, No Iterations 3

ExecutionTime = 7.28 s  ClockTime = 20 s

Time = 40.5

DICPCG:  Solving for T, Initial residual = 0.001046670845964504, Final residual = 4.733665995283414e-13, No Iterations 3

ExecutionTime = 7.3 s  ClockTime = 20 s

Time = 40.6

DICPCG:  Solving for T, Initial residual = 0.001069039373103467, Final residual = 4.745736576707225e-13, No Iterations 3

ExecutionTime = 7.32 s  ClockTime = 20 s

Time = 40.7

DICPCG:  Solving for T, Initial residual = 0.001091401188451597, Final residual = 4.74986972536929e-13, No Iterations 3

ExecutionTime = 7.34 s  ClockTime = 20 s

Time = 40.8

DICPCG:  Solving for T, Initial residual = 0.001111250960009474, Final residual = 4.739615273303594e-13, No Iterations 3

ExecutionTime = 7.35 s  ClockTime = 20 s

Time = 40.9

DICPCG:  Solving for T, Initial residual = 0.001128504010810728, Final residual = 4.715400138371183e-13, No Iterations 3

ExecutionTime = 7.37 s  ClockTime = 20 s

Time = 41

DICPCG:  Solving for T, Initial residual = 0.001143895302098798, Final residual = 4.681597828914188e-13, No Iterations 3

ExecutionTime = 7.38 s  ClockTime = 20 s

Time = 41.1

DICPCG:  Solving for T, Initial residual = 0.00115994592536692, Final residual = 4.635059560289126e-13, No Iterations 3

[...]
||||||           ] 81% [|||||||||||||||||||||||||||||||||||||||||||||||||           ] 82% [|||||||||||||||||||||||||||||||||||||||||||||||||           ] 82% [|||||||||||||||||||||||||||||||||||||||||||||||||           ] 82% [|||||||||||||||||||||||||||||||||||||||||||||||||           ] 82% [|||||||||||||||||||||||||||||||||||||||||||||||||           ] 82% [|||||||||||||||||||||||||||||||||||||||||||||||||           ] 82% [|||||||||||||||||||||||||||||||||||||||||||||||||           ] 82% [|||||||||||||||||||||||||||||||||||||||||||||||||           ] 82% [|||||||||||||||||||||||||||||||||||||||||||||||||           ] 82% [|||||||||||||||||||||||||||||||||||||||||||||||||           ] 82% [|||||||||||||||||||||||||||||||||||||||||||||||||           ] 83% [|||||||||||||||||||||||||||||||||||||||||||||||||           ] 83% [|||||||||||||||||||||||||||||||||||||||||||||||||           ] 83% [|||||||||||||||||||||||||||||||||||||||||||||||||           ] 83% [|||||||||||||||||||||||||||||||||||||||||||||||||           ] 83% [||||||||||||||||||||||||||||||||||||||||||||||||||          ] 83% [||||||||||||||||||||||||||||||||||||||||||||||||||          ] 83% [||||||||||||||||||||||||||||||||||||||||||||||||||          ] 83% [||||||||||||||||||||||||||||||||||||||||||||||||||          ] 83% [||||||||||||||||||||||||||||||||||||||||||||||||||          ] 83% [||||||||||||||||||||||||||||||||||||||||||||||||||          ] 84% [||||||||||||||||||||||||||||||||||||||||||||||||||          ] 84% [||||||||||||||||||||||||||||||||||||||||||||||||||          ] 84% [||||||||||||||||||||||||||||||||||||||||||||||||||          ] 84% [||||||||||||||||||||||||||||||||||||||||||||||||||          ] 84% [||||||||||||||||||||||||||||||||||||||||||||||||||          ] 84% [||||||||||||||||||||||||||||||||||||||||||||||||||          ] 84% [||||||||||||||||||||||||||||||||||||||||||||||||||          ] 84% [||||||||||||||||||||||||||||||||||||||||||||||||||          ] 84% [||||||||||||||||||||||||||||||||||||||||||||||||||          ] 84% [||||||||||||||||||||||||||||||||||||||||||||||||||          ] 85% [|||||||||||||||||||||||||||||||||||||||||||||||||||         ] 85% [|||||||||||||||||||||||||||||||||||||||||||||||||||         ] 85% [|||||||||||||||||||||||||||||||||||||||||||||||||||         ] 85% [|||||||||||||||||||||||||||||||||||||||||||||||||||         ] 85% [|||||||||||||||||||||||||||||||||||||||||||||||||||         ] 85% [|||||||||||||||||||||||||||||||||||||||||||||||||||         ] 85% [|||||||||||||||||||||||||||||||||||||||||||||||||||         ] 85% [|||||||||||||||||||||||||||||||||||||||||||||||||||         ] 85% [|||||||||||||||||||||||||||||||||||||||||||||||||||         ] 85% [|||||||||||||||||||||||||||||||||||||||||||||||||||         ] 86% [|||||||||||||||||||||||||||||||||||||||||||||||||||         ] 86% [|||||||||||||||||||||||||||||||||||||||||||||||||||         ] 86% [|||||||||||||||||||||||||||||||||||||||||||||||||||         ] 86% [|||||||||||||||||||||||||||||||||||||||||||||||||||         ] 86% [|||||||||||||||||||||||||||||||||||||||||||||||||||         ] 86% [|||||||||||||||||||||||||||||||||||||||||||||||||||         ] 86% [|||||||||||||||||||||||||||||||||||||||||||||||||||         ] 86% [||||||||||||||||||||||||||||||||||||||||||||||||||||        ] 86% [||||||||||||||||||||||||||||||||||||||||||||||||||||        ] 86% [||||||||||||||||||||||||||||||||||||||||||||||||||||        ] 87% [||||||||||||||||||||||||||||||||||||||||||||||||||||        ] 87% [||||||||||||||||||||||||||||||||||||||||||||||||||||        ] 87% [||||||||||||||||||||||||||||||||||||||||||||||||||||        ] 87% [||||||||||||||||||||||||||||||||||||||||||||||||||||        ] 87% [||||||||||||||||||||||||||||||||||||||||||||||||||||        ] 87% [||||||||||||||||||||||||||||||||||||||||||||||||||||        ] 87% [||||||||||||||||||||||||||||||||||||||||||||||||||||        ] 87% [||||||||||||||||||||||||||||||||||||||||||||||||||||        ] 87% [||||||||||||||||||||||||||||||||||||||||||||||||||||        ] 87% [||||||||||||||||||||||||||||||||||||||||||||||||||||        ] 88% [||||||||||||||||||||||||||||||||||||||||||||||||||||        ] 88% [||||||||||||||||||||||||||||||||||||||||||||||||||||        ] 88% [||||||||||||||||||||||||||||||||||||||||||||||||||||        ] 88% [||||||||||||||||||||||||||||||||||||||||||||||||||||        ] 88% [|||||||||||||||||||||||||||||||||||||||||||||||||||||       ] 88% [|||||||||||||||||||||||||||||||||||||||||||||||||||||       ] 88% [|||||||||||||||||||||||||||||||||||||||||||||||||||||       ] 88% [|||||||||||||||||||||||||||||||||||||||||||||||||||||       ] 88% [|||||||||||||||||||||||||||||||||||||||||||||||||||||       ] 88% [|||||||||||||||||||||||||||||||||||||||||||||||||||||       ] 89% [|||||||||||||||||||||||||||||||||||||||||||||||||||||       ] 89% [|||||||||||||||||||||||||||||||||||||||||||||||||||||       ] 89% [|||||||||||||||||||||||||||||||||||||||||||||||||||||       ] 89% [|||||||||||||||||||||||||||||||||||||||||||||||||||||       ] 89% [|||||||||||||||||||||||||||||||||||||||||||||||||||||       ] 89% [|||||||||||||||||||||||||||||||||||||||||||||||||||||       ] 89% [|||||||||||||||||||||||||||||||||||||||||||||||||||||       ] 89% [|||||||||||||||||||||||||||||||||||||||||||||||||||||       ] 89% [|||||||||||||||||||||||||||||||||||||||||||||||||||||       ] 89% [|||||||||||||||||||||||||||||||||||||||||||||||||||||       ] 90% [||||||||||||||||||||||||||||||||||||||||||||||||||||||      ] 90% [||||||||||||||||||||||||||||||||||||||||||||||||||||||      ] 90% [||||||||||||||||||||||||||||||||||||||||||||||||||||||      ] 90% [||||||||||||||||||||||||||||||||||||||||||||||||||||||      ] 90% [||||||||||||||||||||||||||||||||||||||||||||||||||||||      ] 90% [||||||||||||||||||||||||||||||||||||||||||||||||||||||      ] 90% [||||||||||||||||||||||||||||||||||||||||||||||||||||||      ] 90% [||||||||||||||||||||||||||||||||||||||||||||||||||||||      ] 90% [||||||||||||||||||||||||||||||||||||||||||||||||||||||      ] 90% [||||||||||||||||||||||||||||||||||||||||||||||||||||||      ] 91% [||||||||||||||||||||||||||||||||||||||||||||||||||||||      ] 91% [||||||||||||||||||||||||||||||||||||||||||||||||||||||      ] 91% [||||||||||||||||||||||||||||||||||||||||||||||||||||||      ] 91% [||||||||||||||||||||||||||||||||||||||||||||||||||||||      ] 91% [||||||||||||||||||||||||||||||||||||||||||||||||||||||      ] 91% [||||||||||||||||||||||||||||||||||||||||||||||||||||||      ] 91% [||||||||||||||||||||||||||||||||||||||||||||||||||||||      ] 91% [|||||||||||||||||||||||||||||||||||||||||||||||||||||||     ] 91% [|||||||||||||||||||||||||||||||||||||||||||||||||||||||     ] 91% [|||||||||||||||||||||||||||||||||||||||||||||||||||||||     ] 92% [|||||||||||||||||||||||||||||||||||||||||||||||||||||||     ] 92% [|||||||||||||||||||||||||||||||||||||||||||||||||||||||     ] 92% [|||||||||||||||||||||||||||||||||||||||||||||||||||||||     ] 92% [|||||||||||||||||||||||||||||||||||||||||||||||||||||||     ] 92% [|||||||||||||||||||||||||||||||||||||||||||||||||||||||     ] 92% [|||||||||||||||||||||||||||||||||||||||||||||||||||||||     ] 92% [|||||||||||||||||||||||||||||||||||||||||||||||||||||||     ] 92% [|||||||||||||||||||||||||||||||||||||||||||||||||||||||     ] 92% [|||||||||||||||||||||||||||||||||||||||||||||||||||||||     ] 92% [|||||||||||||||||||||||||||||||||||||||||||||||||||||||     ] 93% [|||||||||||||||||||||||||||||||||||||||||||||||||||||||     ] 93% [|||||||||||||||||||||||||||||||||||||||||||||||||||||||     ] 93% [|||||||||||||||||||||||||||||||||||||||||||||||||||||||     ] 93% [|||||||||||||||||||||||||||||||||||||||||||||||||||||||     ] 93% [||||||||||||||||||||||||||||||||||||||||||||||||||||||||    ] 93% [||||||||||||||||||||||||||||||||||||||||||||||||||||||||    ] 93% [||||||||||||||||||||||||||||||||||||||||||||||||||||||||    ] 93% [||||||||||||||||||||||||||||||||||||||||||||||||||||||||    ] 93% [||||||||||||||||||||||||||||||||||||||||||||||||||||||||    ] 93% [||||||||||||||||||||||||||||||||||||||||||||||||||||||||    ] 94% [||||||||||||||||||||||||||||||||||||||||||||||||||||||||    ] 94% [||||||||||||||||||||||||||||||||||||||||||||||||||||||||    ] 94% [||||||||||||||||||||||||||||||||||||||||||||||||||||||||    ] 94% [||||||||||||||||||||||||||||||||||||||||||||||||||||||||    ] 94% [||||||||||||||||||||||||||||||||||||||||||||||||||||||||    ] 94% [||||||||||||||||||||||||||||||||||||||||||||||||||||||||    ] 94% [||||||||||||||||||||||||||||||||||||||||||||||||||||||||    ] 94% [||||||||||||||||||||||||||||||||||||||||||||||||||||||||    ] 94% [||||||||||||||||||||||||||||||||||||||||||||||||||||||||    ] 94% [||||||||||||||||||||||||||||||||||||||||||||||||||||||||    ] 95% [|||||||||||||||||||||||||||||||||||||||||||||||||||||||||   ] 95% [|||||||||||||||||||||||||||||||||||||||||||||||||||||||||   ] 95% [|||||||||||||||||||||||||||||||||||||||||||||||||||||||||   ] 95% [|||||||||||||||||||||||||||||||||||||||||||||||||||||||||   ] 95% [|||||||||||||||||||||||||||||||||||||||||||||||||||||||||   ] 95% [|||||||||||||||||||||||||||||||||||||||||||||||||||||||||   ] 95% [|||||||||||||||||||||||||||||||||||||||||||||||||||||||||   ] 95% [|||||||||||||||||||||||||||||||||||||||||||||||||||||||||   ] 95% [|||||||||||||||||||||||||||||||||||||||||||||||||||||||||   ] 95% [|||||||||||||||||||||||||||||||||||||||||||||||||||||||||   ] 96% [|||||||||||||||||||||||||||||||||||||||||||||||||||||||||   ] 96% [|||||||||||||||||||||||||||||||||||||||||||||||||||||||||   ] 96% [|||||||||||||||||||||||||||||||||||||||||||||||||||||||||   ] 96% [|||||||||||||||||||||||||||||||||||||||||||||||||||||||||   ] 96% [|||||||||||||||||||||||||||||||||||||||||||||||||||||||||   ] 96% [|||||||||||||||||||||||||||||||||||||||||||||||||||||||||   ] 96% [|||||||||||||||||||||||||||||||||||||||||||||||||||||||||   ] 96% [||||||||||||||||||||||||||||||||||||||||||||||||||||||||||  ] 96% [||||||||||||||||||||||||||||||||||||||||||||||||||||||||||  ] 96% [||||||||||||||||||||||||||||||||||||||||||||||||||||||||||  ] 97% [||||||||||||||||||||||||||||||||||||||||||||||||||||||||||  ] 97% [||||||||||||||||||||||||||||||||||||||||||||||||||||||||||  ] 97% [||||||||||||||||||||||||||||||||||||||||||||||||||||||||||  ] 97% [||||||||||||||||||||||||||||||||||||||||||||||||||||||||||  ] 97% [||||||||||||||||||||||||||||||||||||||||||||||||||||||||||  ] 97% [||||||||||||||||||||||||||||||||||||||||||||||||||||||||||  ] 97% [||||||||||||||||||||||||||||||||||||||||||||||||||||||||||  ] 97% [||||||||||||||||||||||||||||||||||||||||||||||||||||||||||  ] 97% [||||||||||||||||||||||||||||||||||||||||||||||||||||||||||  ] 97% [||||||||||||||||||||||||||||||||||||||||||||||||||||||||||  ] 98% [||||||||||||||||||||||||||||||||||||||||||||||||||||||||||  ] 98% [||||||||||||||||||||||||||||||||||||||||||||||||||||||||||  ] 98% [||||||||||||||||||||||||||||||||||||||||||||||||||||||||||  ] 98% [||||||||||||||||||||||||||||||||||||||||||||||||||||||||||  ] 98% [||||||||||||||||||||||||||||||||||||||||||||||||||||||||||| ] 98% [||||||||||||||||||||||||||||||||||||||||||||||||||||||||||| ] 98% [||||||||||||||||||||||||||||||||||||||||||||||||||||||||||| ] 98% [||||||||||||||||||||||||||||||||||||||||||||||||||||||||||| ] 98% [||||||||||||||||||||||||||||||||||||||||||||||||||||||||||| ] 98% [||||||||||||||||||||||||||||||||||||||||||||||||||||||||||| ] 99% [||||||||||||||||||||||||||||||||||||||||||||||||||||||||||| ] 99% [||||||||||||||||||||||||||||||||||||||||||||||||||||||||||| ] 99% [||||||||||||||||||||||||||||||||||||||||||||||||||||||||||| ] 99% [||||||||||||||||||||||||||||||||||||||||||||||||||||||||||| ] 99% [||||||||||||||||||||||||||||||||||||||||||||||||||||||||||| ] 99% [||||||||||||||||||||||||||||||||||||||||||||||||||||||||||| ] 99% [||||||||||||||||||||||||||||||||||||||||||||||||||||||||||| ] 99% [||||||||||||||||||||||||||||||||||||||||||||||||||||||||||| ] 99% [||||||||||||||||||||||||||||||||||||||||||||||||||||||||||| ] 99% [||||||||||||||||||||||||||||||||||||||||||||||||||||||||||| ]debug : g[timeI] = 
400
(
-1119745.714921132
-1138632.732339561
-1157941.114654295
-1177586.892239764
-1197488.623147495
-1217568.991089299
-1237756.325120106
-1257985.97959999
-1278201.517607614
-1298355.649385184
-1318410.889118783
-1338339.907546416
-1358125.573458791
-1377760.692894548
-1397247.469517946
-1416596.722235039
-1435826.905716501
-1454962.9856444
-1474035.223021522
-1493077.920944788
-1068661.747324988
-1087571.972691163
-1106915.920370169
-1126607.363406874
-1146562.881006345
-1166703.551405437
-1186956.552782372
-1207256.605197616
-1227547.192136131
-1247781.510088004
-1267923.108118854
-1287946.195550069
-1307835.613395423
-1327586.482679993
-1347203.558809832
-1366700.334563494
-1386097.944164492
-1405423.926735669
-1424710.909169637
-1443995.26633928
-1021798.675285116
-1040701.498389408
-1060048.199866802
-1079750.716112845
-1099724.089836664
-1119888.243757375
-1140169.647873908
-1160502.808538184
-1180831.514163859
-1201109.783684134
-1221302.479085341
-1241385.561312571
-1261345.988120511
-1281181.271414533
-1300898.728780136
-1320514.477916703
-1340052.232653663
-1359541.964648053
-1379018.495733298
-1398520.082619891
-979811.4544822723
-998691.8466589302
-1018023.873138823
-1037717.946015738
-1057687.88834291
-1077852.774660669
-1098138.65091835
-1118480.05825913
-1138821.292707816
-1159117.345334075
-1179334.484123208
-1199450.458262734
-1219454.326233946
-1239345.929256663
-1259135.049626611
-1278840.307922371
-1298487.863013394
-1318109.983797617
-1337743.561718494
-1357428.628852919
-943247.1365275607
-962103.9796087742
-981417.8916359693
-1001097.961313225
-1021056.976668298
-1041213.319682933
-1061492.727630094
-1081829.842898004
-1102169.481444955
-1122467.563537695
-1142691.668160006
-1162821.193041176
-1182847.123939008
-1202771.437804528
-1222606.183034986
-1242372.294776499
-1262098.213202029
-1281818.377436124
-1301571.667427674
-1321399.861160778
-912508.0437677726
-931349.7076870352
-950651.8761875033
-970322.4361874014
-990273.2263491675
-1010421.974975243
-1030694.094413616
-1051024.252053224
-1071357.646905005
-1091650.934891775
-1111872.764350131
-1132003.904440224
-1152036.971427038
-1171975.779301241
-1191834.360179573
-1211635.714969292
-1231410.364890821
-1251194.779214516
-1271029.754075021
-1290958.812083252
-887839.539343968
-906677.8075639904
-925978.496421501
-945648.3917117268
-965598.4336169362
-985745.688886255
-1006015.172278196
-1026341.43642661
-1046669.85849911
-1066957.566420645
-1087173.96605891
-1107300.852192111
-1127332.108582444
-1147273.024224885
-1167139.272100046
-1186955.612104096
-1206754.390256122
-1226573.911338925
-1246456.76187706
-1266448.15534123
-869347.5995019078
-888191.7855276465
-907499.3152928874
-927176.0167472064
-947132.0195586905
-967283.7538909763
-987555.7939395607
-1007882.464951046
-1028209.141751982
-1048493.181246325
-1068704.449940495
-1088825.428958468
-1108850.901519291
-1128787.249696523
-1148651.406745411
-1168469.526954703
-1188275.445824809
-1208109.008896932
-1228014.347749956
-1248038.177031346
-857042.3131391779
-875895.5204048231
-895212.4748166427
-914898.2757046148
-934862.4176955596
-955020.808910422
-975297.6314577609
-995626.9626881406
-1015954.084973067
-1036236.42614343
-1056444.091224931
-1076559.967417613
-1096579.406736389
-1116509.512624212
-1136368.076488599
-1156182.226066262
-1175986.858759962
-1195822.939045258
-1215735.739673555
-1235773.102101073
-850893.8743576407
-869752.6215122938
-889075.3489275649
-908766.7475144193
-928735.9475746974
-948898.5490528494
-969178.4928911924
-989509.6916395351
-1009837.34677732
-1030118.894568913
-1050324.540777169
-1070437.365869835
-1090453.004869781
-1110378.927972496
-1130233.36782863
-1150043.955520317
-1169846.138710357
-1189681.461613178
-1209595.787260175
-1229637.538384162
-850881.8639706373
-869738.937141791
-889060.239288792
-908750.4296147227
-928718.6032595709
-948880.3256067857
-969159.5073994696
-989490.0383708552
-1009817.106468216
-1030098.14423696
-1050303.362594806
-1070415.853723697
-1090431.267494135
-1110357.087954253
-1130211.556274228
-1150022.302695654
-1169824.761431314
-1189660.448535122
-1209575.18343246
-1229617.330497451
-857019.9504904151
-875868.9474560022
-895182.4399294034
-914865.4319851622
-934827.3096235767
-954983.870296374
-975259.1941123083
-995587.2739570588
-1015913.331235297
-1036194.758630611
-1056401.650220245
-1076516.901081406
-1096535.881469615
-1116465.712937303
-1136324.19364775
-1156138.43616768
-1175943.292151138
-1195779.644017257
-1215692.643972136
-1235729.975999877
-869346.8352937624
-888186.1205359772
-907489.9964183122
-927164.137104094
-947118.4877036437
-967269.2792388797
-987540.8880991191
-1007867.457000047
-1028194.203950651
-1048478.36056602
-1068689.700227551
-1088810.638640091
-1108835.91249156
-1128771.864308208
-1148635.38143146
-1168452.552854121
-1188257.118400663
-1208088.789948896
-1227991.52411408
-1248011.820622087
-887886.9184249192
-906720.9962952137
-926019.2198172882
-945688.1853952631
-965638.5874622762
-985787.2080136761
-1006058.756251872
-1026387.475721262
-1046718.44563894
-1067008.517859899
-1087226.850048237
-1107355.017658494
-1127386.710465088
-1147327.041686796
-1167191.517418385
-1187004.729638778
-1206798.846474372
-1226611.978235222
-1246486.49709852
-1266467.382831387
-912595.2846188694
-931432.7660590261
-950732.9072725028
-970403.4228197709
-990355.8921645731
-1010507.711626008
-1030783.905339561
-1051118.713891432
-1071456.888176762
-1091754.630302057
-1111980.142018557
-1132113.762764558
-1152147.702108227
-1172085.393320754
-1191940.514147304
-1211735.736129686
-1231501.274050325
-1251273.311783805
-1271092.380185686
-1291001.757246688
-943306.5283890814
-962155.3187078238
-981463.6996961012
-1001140.689783089
-1021098.890066177
-1041256.385151707
-1061538.514959201
-1081879.438582316
-1102223.419463679
-1122525.774537452
-1142753.447699063
-1162885.188591205
-1182911.339516044
-1202833.254469819
-1222662.39309293
-1242419.14730262
-1262131.46853558
-1281833.368425287
-1301563.365467213
-1321362.94536268
-979704.1685815677
-998565.5585777834
-1017881.422472551
-1037562.311787337
-1057522.048525177
-1077679.560174763
-1097960.599806175
-1118299.276002809
-1138639.324590661
-1158935.066293001
-1179152.010741763
-1199267.08644487
-1219268.496762127
-1239155.221983358
-1258936.205583036
-1278629.277285531
-1298259.875739634
-1317859.638893306
-1337464.930608146
-1357115.368134156
-1021319.066668332
-1040182.669214696
-1059493.309613287
-1079163.383973561
-1099108.239522777
-1119247.928456977
-1139508.861933477
-1159825.293734804
-1180140.569290794
-1200408.086454697
-1220591.929004937
-1240667.151165791
-1260619.710139357
-1280446.062162422
-1300152.454488926
-1319753.95965565
-1339273.308504134
-1358739.5841837
-1378186.840704806
-1397652.706884548
-1067555.501238137
-1086396.476979256
-1105674.730028719
-1125304.904579356
-1145204.290423192
-1165294.480760626
-1185502.944856986
-1205764.450792201
-1226022.278639376
-1246229.173576899
-1266348.001118086
-1286352.081905358
-1306225.200178497
-1325961.29676459
-1345563.872949533
-1365045.144731097
-1384424.996848933
-1403729.792112984
-1422991.093780756
-1442244.357270189
-1117736.201248005
-1136515.317589685
-1155719.897554524
-1175267.308034517
-1195077.285024799
-1215073.482154533
-1235184.947461084
-1255347.470002227
-1275504.742015585
-1295609.290000081
-1315623.13887345
-1335518.186491147
-1355276.280325688
-1374889.002883077
-1394357.186375774
-1413690.189259782
-1432904.976706527
-1452025.053377151
-1471079.299824744
-1490100.763546787
)

100% [||||||||||||||||||||||||||||||||||||||||||||||||||||||||||||]I/O    : uncollated
