/*---------------------------------------------------------------------------*\
| =========                 |                                                 |
| \\      /  F ield         | OpenFOAM: The Open Source CFD Toolbox           |
|  \\    /   O peration     | Version:  v1812                                 |
|   \\  /    A nd           | Web:      www.OpenFOAM.com                      |
|    \\/     M anipulation  |                                                 |
\*---------------------------------------------------------------------------*/
Build  : v1812 OPENFOAM=1812
Arch   : "LSB;label=32;scalar=64"
Exec   : analyticalBenchmark
Date   : Jun 30 2020
Time   : 18:35:49
Host   : umberto-Inspiron-7370
PID    : 16497
I/O    : uncollated
Case   : /home/umberto/PhD/ITHACA-FV/tutorials/analyticalBenchmark/coarseMesh
nProcs : 1
trapFpe: Floating point exception trapping enabled (FOAM_SIGFPE).
fileModificationChecking : Monitoring run-time modified files using timeStampMaster (fileModificationSkew 10)
allowSystemOperations : Allowing user-supplied system call operations

// * * * * * * * * * * * * * * * * * * * * * * * * * * * * * * * * * * * * * //
Create time

Create mesh for time = 0


SIMPLE: convergence criteria
    field T	 tolerance 1e-12
    field lambda	 tolerance 1e-12
    field deltaT	 tolerance 1e-12

Create field T
Create field lambda
Create field deltaT
Offline data already exist, reading existing data
POD data already exist, reading existing modes

SIMPLE: convergence criteria
    field T	 tolerance 1e-12
    field lambda	 tolerance 1e-12
    field deltaT	 tolerance 1e-12

DT = DT [1 1 -3 -1 0 0 0] 1
DICPCG:  Solving for T, Initial residual = 1, Final residual = 5.50388e-13, No Iterations 39
Exporting
Exporting analytical solution
L2 norm of the relative error = 2.29525e-14
Linf norm of the relative error = 4.87538e-14
L2 norm of the error = 5.93781e-13
Linf norm of the error = 2.08544e-12
L2 norm of T = 25.87
L2 norm of Tanal = 19.8431
L2 norm of diff = 6.02687
L2 norm of rel diff = 0.303726

Reading thermocouples cells from file
debug: Tmeas = 18.4
19.4
20.8
22.6
17.8
18.8
20.2
  22
16.8
17.8
19.2
  21
15.4
16.4
17.8
19.6
NOT interpolating thermocouples measurements

*********************************************************
Performing test for the parameterized BC inverse solver

Radial Basis Functions are used.
gWeights = 16{0}

Offline already computed.
Check that the basis used for the parameterized BC are correct (RBF, POD, etc.)
######### Reading the Data for Tad #########
100% [||||||||||||||||||||||||||||||||||||||||||||||||||||||||||||]
######### Reading the Data for T #########
 16% [||||||||||                                                  ] 22% [|||||||||||||                                               ] 27% [||||||||||||||||                                            ] 33% [||||||||||||||||||||                                        ] 38% [|||||||||||||||||||||||                                     ] 44% [||||||||||||||||||||||||||                                  ] 50% [||||||||||||||||||||||||||||||                              ] 55% [|||||||||||||||||||||||||||||||||                           ] 61% [||||||||||||||||||||||||||||||||||||                        ] 66% [||||||||||||||||||||||||||||||||||||||||                    ] 72% [|||||||||||||||||||||||||||||||||||||||||||                 ] 77% [||||||||||||||||||||||||||||||||||||||||||||||              ] 83% [||||||||||||||||||||||||||||||||||||||||||||||||||          ] 88% [|||||||||||||||||||||||||||||||||||||||||||||||||||||       ] 94% [||||||||||||||||||||||||||||||||||||||||||||||||||||||||    ]100% [||||||||||||||||||||||||||||||||||||||||||||||||||||||||||||]
Condition number = 1.06035e+17
Solver fullPivLU


Using quasilinearity of direct problem
Theta size = 16, 16
Reconstructing field T

Resetting time, mesh and fields: all


SIMPLE: convergence criteria
    field T	 tolerance 1e-12
    field lambda	 tolerance 1e-12
    field deltaT	 tolerance 1e-12

Ready for new computation
debug: Tad_base.size() = 1
debug: Tbasis.size() = 16
debug: gWeights = 

16
(
-14460.3
21096.2
0
-6924.19
21020.8
-31081.3
0
10093.6
0
813.814
0
0
-7179.26
10049.5
0
-3427.74
)

debug 1
J = 3.16353
End

Duration online part = 0.003267 seconds
Solver jacobiSvd


Using quasilinearity of direct problem
Theta size = 16, 16
Reconstructing field T

Resetting time, mesh and fields: all


SIMPLE: convergence criteria
    field T	 tolerance 1e-12
    field lambda	 tolerance 1e-12
    field deltaT	 tolerance 1e-12

Ready for new computation
debug: Tad_base.size() = 1
debug: Tbasis.size() = 16
debug: gWeights = 

16
(
-7980.15
7417.43
8080.55
-7997.84
7801.35
-7546.23
-7454.21
7799.6
8091.04
-7805.21
-7380.26
7326.86
-8104
7562.05
8015
-7824.97
)

debug 1
J = 1.34256
End

Duration online part = 0.003291 seconds
Solver householderQr


Using quasilinearity of direct problem
Theta size = 16, 16
Reconstructing field T

Resetting time, mesh and fields: all


SIMPLE: convergence criteria
    field T	 tolerance 1e-12
    field lambda	 tolerance 1e-12
    field deltaT	 tolerance 1e-12

Ready for new computation
debug: Tad_base.size() = 1
debug: Tbasis.size() = 16
debug: gWeights = 

16
(
-7691.83
21740.7
-1754.02
-4016.27
-2291.75
-22243.7
-6929.93
6283.26
18488.9
7195.28
-8156.01
9040.26
-21721.7
31022.6
-20544.4
1579.61
)

debug 1
J = 4.80471
End

Duration online part = 0.003383 seconds
Solver ldlt


Using quasilinearity of direct problem
Theta size = 16, 16
Reconstructing field T

Resetting time, mesh and fields: all


SIMPLE: convergence criteria
    field T	 tolerance 1e-12
    field lambda	 tolerance 1e-12
    field deltaT	 tolerance 1e-12

Ready for new computation
debug: Tad_base.size() = 1
debug: Tbasis.size() = 16
debug: gWeights = 

16
(
-20771.2
42279.5
-17954.1
-16365.8
41502.8
-98504.8
59803.8
34055.4
-20281.2
65870.6
-57592.6
-24751.8
16122.6
-59044
66774.5
-11142.8
)

debug 1
J = 45.1987
End

Duration online part = 0.003233 seconds
Solver TSVD


Using quasilinearity of direct problem
Theta size = 16, 16
Using truncated SVD for regularization
Reconstructing field T

Resetting time, mesh and fields: all


SIMPLE: convergence criteria
    field T	 tolerance 1e-12
    field lambda	 tolerance 1e-12
    field deltaT	 tolerance 1e-12

Ready for new computation
debug: Tad_base.size() = 1
debug: Tbasis.size() = 16
debug: gWeights = 

16
(
-78.7663
-1.87739
1.84448
-68.0116
-5.98418
73.7218
77.5814
5.16852
-6.38354
73.3077
77.1673
4.76916
-79.9203
-3.07411
0.647761
-69.1656
)

debug 1
J = 0.041103
End

Duration online part = 0.003213 seconds
Computing errors
 ######### Reading the Data for gParametrized #########
 28% [|||||||||||||||||                                           ] 42% [|||||||||||||||||||||||||                                   ] 57% [||||||||||||||||||||||||||||||||||                          ] 71% [||||||||||||||||||||||||||||||||||||||||||                  ] 85% [|||||||||||||||||||||||||||||||||||||||||||||||||||         ]100% [||||||||||||||||||||||||||||||||||||||||||||||||||||||||||||]
*********************************************************

