/*---------------------------------------------------------------------------*\
| =========                 |                                                 |
| \\      /  F ield         | OpenFOAM: The Open Source CFD Toolbox           |
|  \\    /   O peration     | Version:  v2012                                 |
|   \\  /    A nd           | Website:  www.openfoam.com                      |
|    \\/     M anipulation  |                                                 |
\*---------------------------------------------------------------------------*/
Build  : _7bdb509494-20201222 OPENFOAM=2012
Arch   : "LSB;label=32;scalar=64"
Exec   : blockMesh
Date   : Feb 03 2021
Time   : 16:35:51
Host   : inspiron-UM
PID    : 22535
I/O    : uncollated
Case   : /media/Data/ITHACA-FV/tutorials/directHeatTransfer/analyticalBenchmark_unsteady/coarseMesh
nProcs : 1
trapFpe: Floating point exception trapping enabled (FOAM_SIGFPE).
fileModificationChecking : Monitoring run-time modified files using timeStampMaster (fileModificationSkew 5, maxFileModificationPolls 20)
allowSystemOperations : Allowing user-supplied system call operations

// * * * * * * * * * * * * * * * * * * * * * * * * * * * * * * * * * * * * * //
Create time

Creating block mesh from "system/blockMeshDict"
Creating block edges
No non-planar block faces defined
Creating topology blocks
Creating topology patches

Creating block mesh topology

Check topology

	Basic statistics
		Number of internal faces : 0
		Number of boundary faces : 6
		Number of defined boundary faces : 6
		Number of undefined boundary faces : 0
	Checking patch -> block consistency

Creating block offsets
Creating merge list (topological search)...
Deleting polyMesh directory "constant/polyMesh"

Creating polyMesh from blockMesh
Creating patches
Creating cells
Creating points with scale 1
    Block 0 cell size :
        i : 0.1 .. 0.09999999999999998
        j : 0.1 .. 0.09999999999999998
        k : 0.1 .. 0.09999999999999998


There are no merge patch pairs

Writing polyMesh with 0 cellZones
----------------
Mesh Information
----------------
  boundingBox: (0 0 0) (1 1 1)
  nPoints: 1331
  nCells: 1000
  nFaces: 3300
  nInternalFaces: 2700
----------------
Patches
----------------
  patch 0 (start: 2700 size: 100) name: hotSide
  patch 1 (start: 2800 size: 100) name: coldSide
  patch 2 (start: 2900 size: 100) name: gammaEx1
  patch 3 (start: 3000 size: 100) name: gammaEx2
  patch 4 (start: 3100 size: 100) name: gammaEx3
  patch 5 (start: 3200 size: 100) name: gammaEx4

End

/*---------------------------------------------------------------------------*\
| =========                 |                                                 |
| \\      /  F ield         | OpenFOAM: The Open Source CFD Toolbox           |
|  \\    /   O peration     | Version:  v2012                                 |
|   \\  /    A nd           | Website:  www.openfoam.com                      |
|    \\/     M anipulation  |                                                 |
\*---------------------------------------------------------------------------*/
Build  : _7bdb509494-20201222 OPENFOAM=2012
Arch   : "LSB;label=32;scalar=64"
Exec   : analyticalBenchmark_unsteady
Date   : Feb 03 2021
Time   : 16:35:51
Host   : inspiron-UM
PID    : 22537
I/O    : uncollated
Case   : /media/Data/ITHACA-FV/tutorials/directHeatTransfer/analyticalBenchmark_unsteady/coarseMesh
nProcs : 1
trapFpe: Floating point exception trapping enabled (FOAM_SIGFPE).
fileModificationChecking : Monitoring run-time modified files using timeStampMaster (fileModificationSkew 5, maxFileModificationPolls 20)
allowSystemOperations : Allowing user-supplied system call operations

// * * * * * * * * * * * * * * * * * * * * * * * * * * * * * * * * * * * * * //
Create time

Create mesh for time = 0


SIMPLE: convergence criteria
    field T	 tolerance 1e-06
    field lambda	 tolerance 1e-06
    field deltaT	 tolerance 1e-06

Create field T
Offline don't exist, performing the Offline Solve
POD don't exist, performing a POD decomposition
debug :
0.04999999999999999, 1, 0.05
27.88214285714286

Thermal diffusivity = diffusivity [0 2 -1 0 0 0 0] 0.1333333333333333 m2/s
Time = 0.1

Updating BC
debug :
28.28214285714286

DICPCG:  Solving for T, Initial residual = 0.07478254074735545, Final residual = 6.636503971572099e-07, No Iterations 7
Exporting analytical solution
L2 norm of the relative error = 2.908535921199853e-05
Linf norm of the relative error = 9.232308266140499e-05
L2 norm of the error = 0.000807024333881215
Linf norm of the error = 0.002304236593673181
ExecutionTime = 0.02 s  ClockTime = 0 s

Time = 0.2

Updating BC
debug :
28.68214285714286

DICPCG:  Solving for T, Initial residual = 0.08038351867403279, Final residual = 1.474400644054399e-07, No Iterations 6
Exporting analytical solution
L2 norm of the relative error = 5.108476935135948e-05
Linf norm of the relative error = 0.0001535714648317787
L2 norm of the error = 0.00143280264776175
Linf norm of the error = 0.003891260435207045
ExecutionTime = 0.02 s  ClockTime = 0 s

Time = 0.3

Updating BC
debug :
29.08214285714286

DICPCG:  Solving for T, Initial residual = 0.08040317265740983, Final residual = 1.477911855715908e-07, No Iterations 6
Exporting analytical solution
L2 norm of the relative error = 6.559843017299868e-05
Linf norm of the relative error = 0.0001830471495039093
L2 norm of the error = 0.00185665495076609
Linf norm of the error = 0.004711176010356866
ExecutionTime = 0.03 s  ClockTime = 0 s

Time = 0.4

Updating BC
debug :
29.48214285714286

DICPCG:  Solving for T, Initial residual = 0.08041384923880858, Final residual = 1.478553540829079e-07, No Iterations 6
Exporting analytical solution
L2 norm of the relative error = 7.702440234751635e-05
Linf norm of the relative error = 0.0002034031679624619
L2 norm of the error = 0.002201673105358812
Linf norm of the error = 0.005316450302618847
ExecutionTime = 0.03 s  ClockTime = 0 s

Time = 0.5

Updating BC
debug :
29.88214285714286

DICPCG:  Solving for T, Initial residual = 0.08042152570030135, Final residual = 1.479110223819079e-07, No Iterations 6
Exporting analytical solution
L2 norm of the relative error = 8.641678906590767e-05
Linf norm of the relative error = 0.0002177237882096147
L2 norm of the error = 0.002495565128994771
Linf norm of the error = 0.005777845029612649
ExecutionTime = 0.05 s  ClockTime = 0 s

Time = 0.6

Updating BC
debug :
30.28214285714286

DICPCG:  Solving for T, Initial residual = 0.08042717190780962, Final residual = 1.479423027558588e-07, No Iterations 6
Exporting analytical solution
L2 norm of the relative error = 9.437855103093483e-05
Linf norm of the relative error = 0.0002283979861225091
L2 norm of the error = 0.002754270550245375
Linf norm of the error = 0.006152470751175088
ExecutionTime = 0.05 s  ClockTime = 1 s

Time = 0.7

Updating BC
debug :
30.68214285714286

DICPCG:  Solving for T, Initial residual = 0.08043152096323836, Final residual = 1.479666062959269e-07, No Iterations 6
Exporting analytical solution
L2 norm of the relative error = 0.0001012620888783972
Linf norm of the relative error = 0.0002364804384859353
L2 norm of the error = 0.002986837498406811
Linf norm of the error = 0.006464783987109257
ExecutionTime = 0.06 s  ClockTime = 1 s

Time = 0.8

Updating BC
debug :
31.08214285714286

DICPCG:  Solving for T, Initial residual = 0.08043492341151566, Final residual = 1.479844552678252e-07, No Iterations 6
Exporting analytical solution
L2 norm of the relative error = 0.0001073088570542917
Linf norm of the relative error = 0.0002426945597668584
L2 norm of the error = 0.003199408217082955
Linf norm of the error = 0.006731740351533233
ExecutionTime = 0.07000000000000001 s  ClockTime = 1 s

Time = 0.9

Updating BC
debug :
31.48214285714286

DICPCG:  Solving for T, Initial residual = 0.08043762465964228, Final residual = 1.479984325724645e-07, No Iterations 6
Exporting analytical solution
L2 norm of the relative error = 0.0001126920006316306
Linf norm of the relative error = 0.0002474939578633843
L2 norm of the error = 0.003396343649682285
Linf norm of the error = 0.006963861239380975
ExecutionTime = 0.07000000000000001 s  ClockTime = 1 s

Time = 1

Updating BC
debug :
31.88214285714286

DICPCG:  Solving for T, Initial residual = 0.08043978530312305, Final residual = 1.48009358930608e-07, No Iterations 6
Exporting analytical solution
L2 norm of the relative error = 0.0001175412331146628
Linf norm of the relative error = 0.0002512019288847451
L2 norm of the error = 0.00358090757068919
Linf norm of the error = 0.007168675045548412
ExecutionTime = 0.08 s  ClockTime = 1 s

Time = 1.1

Updating BC
debug :
32.28214285714286

DICPCG:  Solving for T, Initial residual = 0.08044152271353565, Final residual = 1.480180059763506e-07, No Iterations 6
Exporting analytical solution
L2 norm of the relative error = 0.0001219553352194417
Linf norm of the relative error = 0.0002540502124912165
L2 norm of the error = 0.003755591203798888
Linf norm of the error = 0.007351578023964578
ExecutionTime = 0.09 s  ClockTime = 1 s

Time = 1.2

Updating BC
debug :
32.68214285714286

DICPCG:  Solving for T, Initial residual = 0.08044292345398459, Final residual = 1.48024860232298e-07, No Iterations 6
Exporting analytical solution
L2 norm of the relative error = 0.0001260102833161385
Linf norm of the relative error = 0.0002562130178213636
L2 norm of the error = 0.003922320372782718
Linf norm of the error = 0.007516649410334253
ExecutionTime = 0.09 s  ClockTime = 1 s

Time = 1.3

Updating BC
debug :
33.08214285714286

DICPCG:  Solving for T, Initial residual = 0.08044405398533144, Final residual = 1.48030292678598e-07, No Iterations 6
Exporting analytical solution
L2 norm of the relative error = 0.0001297646975950201
Linf norm of the relative error = 0.0002578234314314516
L2 norm of the error = 0.004082588022640137
Linf norm of the error = 0.007667024292192792
ExecutionTime = 0.1 s  ClockTime = 1 s

Time = 1.4

Updating BC
debug :
33.48214285714286

DICPCG:  Solving for T, Initial residual = 0.08044496611786575, Final residual = 1.480345880789397e-07, No Iterations 6
Exporting analytical solution
L2 norm of the relative error = 0.0001332638695762573
Linf norm of the relative error = 0.0002589853631915769
L2 norm of the error = 0.004237550391279411
Linf norm of the error = 0.007805171383186149
ExecutionTime = 0.11 s  ClockTime = 1 s

Time = 1.5

Updating BC
debug :
33.88214285714286

DICPCG:  Solving for T, Initial residual = 0.08044570095460427, Final residual = 1.480379648805903e-07, No Iterations 6
Exporting analytical solution
L2 norm of the relative error = 0.000136542814546028
Linf norm of the relative error = 0.0002597808741291436
L2 norm of the error = 0.004388099169282762
Linf norm of the error = 0.007933058443718721
ExecutionTime = 0.11 s  ClockTime = 1 s

Time = 1.6

Updating BC
debug :
34.28214285714286

DICPCG:  Solving for T, Initial residual = 0.08044629142434215, Final residual = 1.480405989940571e-07, No Iterations 6
Exporting analytical solution
L2 norm of the relative error = 0.000139628641126765
Linf norm of the relative error = 0.0002602754830447357
L2 norm of the error = 0.004534917952071095
Linf norm of the error = 0.00805227275669651
ExecutionTime = 0.12 s  ClockTime = 1 s

Time = 1.7

Updating BC
debug :
34.68214285714286

DICPCG:  Solving for T, Initial residual = 0.08044676412077942, Final residual = 1.480426293858979e-07, No Iterations 6
Exporting analytical solution
L2 norm of the relative error = 0.0001425423972891655
Linf norm of the relative error = 0.000260521859950876
L2 norm of the error = 0.004678526952049947
Linf norm of the error = 0.008164103786210575
ExecutionTime = 0.13 s  ClockTime = 1 s

Time = 1.8

Updating BC
debug :
35.08214285714286

DICPCG:  Solving for T, Initial residual = 0.08044714063068274, Final residual = 1.480441693523725e-07, No Iterations 6
Exporting analytical solution
L2 norm of the relative error = 0.0001453005090062843
Linf norm of the relative error = 0.0002605626006489614
L2 norm of the error = 0.004819318695663397
Linf norm of the error = 0.008269605538096414
ExecutionTime = 0.13 s  ClockTime = 1 s

Time = 1.9

Updating BC
debug :
35.48214285714286

DICPCG:  Solving for T, Initial residual = 0.08044743854146851, Final residual = 1.480453101361164e-07, No Iterations 6
Exporting analytical solution
L2 norm of the relative error = 0.0001479158963706266
Linf norm of the relative error = 0.0002604323029931401
L2 norm of the error = 0.004957586512142323
Linf norm of the error = 0.00836964313744204
ExecutionTime = 0.14 s  ClockTime = 1 s

Time = 2

Updating BC
debug :
35.88214285714286

DICPCG:  Solving for T, Initial residual = 0.08044767221678613, Final residual = 1.48046126412058e-07, No Iterations 6
Exporting analytical solution
L2 norm of the relative error = 0.0001503988347370627
Linf norm of the relative error = 0.0002601591785437294
L2 norm of the error = 0.005093547211523093
Linf norm of the error = 0.008464929271866595
ExecutionTime = 0.14 s  ClockTime = 1 s

Time = 2.1

Updating BC
debug :
36.28214285714286

DICPCG:  Solving for T, Initial residual = 0.08044785340685286, Final residual = 1.480466789098927e-07, No Iterations 6
Exporting analytical solution
L2 norm of the relative error = 0.0001527576148484298
Linf norm of the relative error = 0.0002597663075546879
L2 norm of the error = 0.005227359052353961
Linf norm of the error = 0.008556052755082533
ExecutionTime = 0.14 s  ClockTime = 1 s

Time = 2.2

Updating BC
debug :
36.68214285714286

DICPCG:  Solving for T, Initial residual = 0.080447991734292, Final residual = 1.480470173976678e-07, No Iterations 6
Exporting analytical solution
L2 norm of the relative error = 0.0001549990455254555
Linf norm of the relative error = 0.0002592726331995048
L2 norm of the error = 0.005359135901313082
Linf norm of the error = 0.00864350140928849
ExecutionTime = 0.15 s  ClockTime = 1 s

Time = 2.3

Updating BC
debug :
37.08214285714286

DICPCG:  Solving for T, Initial residual = 0.08044809508484098, Final residual = 1.480471825292412e-07, No Iterations 6
Exporting analytical solution
L2 norm of the relative error = 0.000157128833873004
Linf norm of the relative error = 0.0002586937518191136
L2 norm of the error = 0.005488958326243601
Linf norm of the error = 0.008727680451997344
ExecutionTime = 0.16 s  ClockTime = 2 s

Time = 2.4

Updating BC
debug :
37.48214285714286

DICPCG:  Solving for T, Initial residual = 0.08044816992358021, Final residual = 1.480472076297637e-07, No Iterations 6
Exporting analytical solution
L2 norm of the relative error = 0.0001591518708681456
Linf norm of the relative error = 0.0002580425460299079
L2 norm of the error = 0.005616882233511464
Linf norm of the error = 0.00880892741509598
ExecutionTime = 0.17 s  ClockTime = 2 s

Time = 2.5

Updating BC
debug :
37.88214285714287

DICPCG:  Solving for T, Initial residual = 0.08044822155208456, Final residual = 1.480471199686499e-07, No Iterations 6
Exporting analytical solution
L2 norm of the relative error = 0.0001610724443504865
Linf norm of the relative error = 0.0002573296931745552
L2 norm of the error = 0.00574294555003628
Linf norm of the error = 0.008887524278016201
ExecutionTime = 0.17 s  ClockTime = 2 s

Time = 2.6

Updating BC
debug :
38.28214285714286

DICPCG:  Solving for T, Initial residual = 0.08044825431820124, Final residual = 1.480469418928432e-07, No Iterations 6
Exporting analytical solution
L2 norm of the relative error = 0.0001628943966786612
Linf norm of the relative error = 0.0002565640751572248
L2 norm of the error = 0.005867173357355967
Linf norm of the error = 0.008963707375805541
ExecutionTime = 0.18 s  ClockTime = 2 s

Time = 2.7

Updating BC
debug :
38.68214285714286

DICPCG:  Solving for T, Initial residual = 0.08044827178755069, Final residual = 1.480466916944402e-07, No Iterations 6
Exporting analytical solution
L2 norm of the relative error = 0.0001646212404818969
Linf norm of the relative error = 0.0002557531093694052
L2 norm of the error = 0.005989581806975255
Linf norm of the error = 0.009037675502341358
ExecutionTime = 0.18 s  ClockTime = 2 s

Time = 2.8

Updating BC
debug :
39.08214285714286

DICPCG:  Solving for T, Initial residual = 0.08044827688394468, Final residual = 1.480463843526334e-07, No Iterations 6
Exporting analytical solution
L2 norm of the relative error = 0.0001662562428788475
Linf norm of the relative error = 0.0002549030163957005
L2 norm of the error = 0.006110181081336314
Linf norm of the error = 0.009109596548441345
ExecutionTime = 0.19 s  ClockTime = 2 s

Time = 2.9

Updating BC
debug :
39.48214285714286

DICPCG:  Solving for T, Initial residual = 0.08044827200446548, Final residual = 1.480460321221074e-07, No Iterations 6
Exporting analytical solution
L2 norm of the relative error = 0.0001678024861239753
Linf norm of the relative error = 0.0002540190368702317
L2 norm of the error = 0.006228977611332323
Linf norm of the error = 0.009179612944897997
ExecutionTime = 0.2 s  ClockTime = 2 s

Time = 3

Updating BC
debug :
39.88214285714287

DICPCG:  Solving for T, Initial residual = 0.08044825911384816, Final residual = 1.480456450261976e-07, No Iterations 6
Exporting analytical solution
L2 norm of the relative error = 0.0001692629107531923
Linf norm of the relative error = 0.0002531056073498524
L2 norm of the error = 0.006345975717666288
Linf norm of the error = 0.009247846128545234
ExecutionTime = 0.2 s  ClockTime = 2 s

Time = 3.1

Updating BC
debug :
40.28214285714286

DICPCG:  Solving for T, Initial residual = 0.08044823982191567, Final residual = 1.480452312549267e-07, No Iterations 6
Exporting analytical solution
L2 norm of the relative error = 0.0001706403458340536
Linf norm of the relative error = 0.0002521665031162877
L2 norm of the error = 0.006461178808076744
Linf norm of the error = 0.009314400208857876
ExecutionTime = 0.21 s  ClockTime = 2 s

Time = 3.2

Updating BC
debug :
40.68214285714286

DICPCG:  Solving for T, Initial residual = 0.08044821544713547, Final residual = 1.480447974952597e-07, No Iterations 6
Exporting analytical solution
L2 norm of the relative error = 0.0001719375297952783
Linf norm of the relative error = 0.0002512049542429731
L2 norm of the error = 0.006574590234149491
Linf norm of the error = 0.009379364979047011
ExecutionTime = 0.21 s  ClockTime = 2 s

Time = 3.3

Updating BC
debug :
41.08214285714287

DICPCG:  Solving for T, Initial residual = 0.08044818706879435, Final residual = 1.480443491999688e-07, No Iterations 6
Exporting analytical solution
L2 norm of the relative error = 0.0001731571244417671
Linf norm of the relative error = 0.0002502237400454123
L2 norm of the error = 0.006686213888792502
Linf norm of the error = 0.009442818389963747
ExecutionTime = 0.23 s  ClockTime = 2 s

Time = 3.4

Updating BC
debug :
41.48214285714286

DICPCG:  Solving for T, Initial residual = 0.08044815556983069, Final residual = 1.480438908095717e-07, No Iterations 6
Exporting analytical solution
L2 norm of the relative error = 0.0001743017240999934
Linf norm of the relative error = 0.0002492252660219532
L2 norm of the error = 0.006796054607534654
Linf norm of the error = 0.009504828582912239
ExecutionTime = 0.23 s  ClockTime = 2 s

Time = 3.5

Updating BC
debug :
41.88214285714287

DICPCG:  Solving for T, Initial residual = 0.08044812167200513, Final residual = 1.480434259338283e-07, No Iterations 6
Exporting analytical solution
L2 norm of the relative error = 0.0001753738613360559
Linf norm of the relative error = 0.0002482116266148184
L2 norm of the error = 0.006904118422641314
Linf norm of the error = 0.009565455560668568
ExecutionTime = 0.24 s  ClockTime = 2 s

Time = 3.6

Updating BC
debug :
42.28214285714287

DICPCG:  Solving for T, Initial residual = 0.08044808596478342, Final residual = 1.480429575011962e-07, No Iterations 6
Exporting analytical solution
L2 norm of the relative error = 0.0001763760103076503
Linf norm of the relative error = 0.0002471846564663576
L2 norm of the error = 0.007010412707857271
Linf norm of the error = 0.0096247525611588
ExecutionTime = 0.25 s  ClockTime = 2 s

Time = 3.7

Updating BC
debug :
42.68214285714286

DICPCG:  Solving for T, Initial residual = 0.08044804892904739, Final residual = 1.480424878812018e-07, No Iterations 6
Exporting analytical solution
L2 norm of the relative error = 0.0001773105885270261
Linf norm of the relative error = 0.0002461459723506255
L2 norm of the error = 0.007114946242922171
Linf norm of the error = 0.009682767187342733
ExecutionTime = 0.25 s  ClockTime = 2 s

Time = 3.8

Updating BC
debug :
43.08214285714287

DICPCG:  Solving for T, Initial residual = 0.08044801095657048, Final residual = 1.480420189851141e-07, No Iterations 6
Exporting analytical solution
L2 norm of the relative error = 0.0001781799575963735
Linf norm of the relative error = 0.0002450970075282422
L2 norm of the error = 0.00721772922013166
Linf norm of the error = 0.009739542336653528
ExecutionTime = 0.26 s  ClockTime = 2 s

Time = 3.9

Updating BC
debug :
43.48214285714287

DICPCG:  Solving for T, Initial residual = 0.08044797236600817, Final residual = 1.480415523486037e-07, No Iterations 6
Exporting analytical solution
L2 norm of the relative error = 0.0001789864233176814
Linf norm of the relative error = 0.0002440390399474272
L2 norm of the error = 0.007318773209923663
Linf norm of the error = 0.009795116965889861
ExecutionTime = 0.27 s  ClockTime = 2 s

Time = 4

Updating BC
debug :
43.88214285714287

DICPCG:  Solving for T, Initial residual = 0.08044793341602978, Final residual = 1.48041089199482e-07, No Iterations 6
Exporting analytical solution
L2 norm of the relative error = 0.0001797322354612152
Linf norm of the relative error = 0.0002429732154403479
L2 norm of the error = 0.007418091098376085
Linf norm of the error = 0.009849526720913104
ExecutionTime = 0.27 s  ClockTime = 2 s

Time = 4.1

Updating BC
debug :
44.28214285714287

DICPCG:  Solving for T, Initial residual = 0.08044789431610107, Final residual = 1.48040630513442e-07, No Iterations 6
Exporting analytical solution
L2 norm of the relative error = 0.0001804195873885329
Linf norm of the relative error = 0.0002419005668440941
L2 norm of the error = 0.007515697006281623
Linf norm of the error = 0.009902804455180103
ExecutionTime = 0.27 s  ClockTime = 3 s

Time = 4.2

Updating BC
debug :
44.68214285714286

DICPCG:  Solving for T, Initial residual = 0.08044785523533791, Final residual = 1.480401770597835e-07, No Iterations 6
Exporting analytical solution
L2 norm of the relative error = 0.0001810506156623611
Linf norm of the relative error = 0.0002408220298123763
L2 norm of the error = 0.007611606197026101
Linf norm of the error = 0.009954980657369106
ExecutionTime = 0.28 s  ClockTime = 3 s

Time = 4.3

Updating BC
debug :
45.08214285714286

DICPCG:  Solving for T, Initial residual = 0.08044781630977857, Final residual = 1.48039729438922e-07, No Iterations 6
Exporting analytical solution
L2 norm of the relative error = 0.0001816273997291475
Linf norm of the relative error = 0.0002397384559122715
L2 norm of the error = 0.007705834978607082
Linf norm of the error = 0.01000608380363843
ExecutionTime = 0.29 s  ClockTime = 3 s

Time = 4.4

Updating BC
debug :
45.48214285714286

DICPCG:  Solving for T, Initial residual = 0.08044777764835132, Final residual = 1.480392881132064e-07, No Iterations 6
Exporting analytical solution
L2 norm of the relative error = 0.0001821519617264866
Linf norm of the relative error = 0.000238650623522323
L2 norm of the error = 0.007798400603675631
Linf norm of the error = 0.01005614064867189
ExecutionTime = 0.29 s  ClockTime = 3 s

Time = 4.5

Updating BC
debug :
45.88214285714286

DICPCG:  Solving for T, Initial residual = 0.08044773933777855, Final residual = 1.480388534322149e-07, No Iterations 6
Exporting analytical solution
L2 norm of the relative error = 0.0001826262664441627
Linf norm of the relative error = 0.0002375592469209295
L2 norm of the error = 0.007889321170395338
Linf norm of the error = 0.01010517646589904
ExecutionTime = 0.3 s  ClockTime = 3 s

Time = 4.6

Updating BC
debug :
46.28214285714286

DICPCG:  Solving for T, Initial residual = 0.0804477014465976, Final residual = 1.480384256535362e-07, No Iterations 6
Exporting analytical solution
L2 norm of the relative error = 0.0001830522214503871
Linf norm of the relative error = 0.0002364649838989921
L2 norm of the error = 0.007978615526048033
Linf norm of the error = 0.01015321524616297
ExecutionTime = 0.3 s  ClockTime = 3 s

Time = 4.7

Updating BC
debug :
46.68214285714286

DICPCG:  Solving for T, Initial residual = 0.0804476640284687, Final residual = 1.48038004959787e-07, No Iterations 6
Exporting analytical solution
L2 norm of the relative error = 0.0001834316773842422
Linf norm of the relative error = 0.000235368442163992
L2 norm of the error = 0.00806630317471493
Linf norm of the error = 0.010200279862282
ExecutionTime = 0.31 s  ClockTime = 3 s

Time = 4.8

Updating BC
debug :
47.08214285714286

DICPCG:  Solving for T, Initial residual = 0.08044762712488362, Final residual = 1.480375914725799e-07, No Iterations 6
Exporting analytical solution
L2 norm of the relative error = 0.0001837664284072587
Linf norm of the relative error = 0.0002342701847488434
L2 norm of the error = 0.008152404189864831
Linf norm of the error = 0.01024639220545254
ExecutionTime = 0.32 s  ClockTime = 3 s

Time = 4.9

Updating BC
debug :
47.48214285714285

DICPCG:  Solving for T, Initial residual = 0.08044759076739492, Final residual = 1.480371852640092e-07, No Iterations 6
Exporting analytical solution
L2 norm of the relative error = 0.0001840582128026755
Linf norm of the relative error = 0.0002331707346008645
L2 norm of the error = 0.008236939132340255
Linf norm of the error = 0.01029157329844566
ExecutionTime = 0.33 s  ClockTime = 3 s

Time = 5

Updating BC
debug :
47.88214285714285

DICPCG:  Solving for T, Initial residual = 0.08044755497944119, Final residual = 1.480367863660641e-07, No Iterations 6
Exporting analytical solution
L2 norm of the relative error = 0.0001843087137081732
Linf norm of the relative error = 0.0002320705785027597
L2 norm of the error = 0.008319928973970981
Linf norm of the error = 0.01033584339006666
ExecutionTime = 0.33 s  ClockTime = 3 s

Time = 5.1

Updating BC
debug :
48.28214285714285

DICPCG:  Solving for T, Initial residual = 0.08044751977784817, Final residual = 1.480363947783327e-07, No Iterations 6
Exporting analytical solution
L2 norm of the relative error = 0.000184519559966523
Linf norm of the relative error = 0.0002309701704298493
L2 norm of the error = 0.008401395026858055
Linf norm of the error = 0.01037922203369135
ExecutionTime = 0.34 s  ClockTime = 3 s

Time = 5.2

Updating BC
debug :
48.68214285714285

DICPCG:  Solving for T, Initial residual = 0.08044748517405967, Final residual = 1.48036010474335e-07, No Iterations 6
Exporting analytical solution
L2 norm of the relative error = 0.0001846923270783473
Linf norm of the relative error = 0.0002298699344502998
L2 norm of the error = 0.008481358878237944
Linf norm of the error = 0.01042172815314046
ExecutionTime = 0.34 s  ClockTime = 3 s

Time = 5.3

Updating BC
debug :
49.08214285714285

DICPCG:  Solving for T, Initial residual = 0.08044745117514611, Final residual = 1.480356334066913e-07, No Iterations 6
Exporting analytical solution
L2 norm of the relative error = 0.0001848285382416001
Linf norm of the relative error = 0.0002287702672385873
L2 norm of the error = 0.008559842330751534
Linf norm of the error = 0.01046338009782488
ExecutionTime = 0.35 s  ClockTime = 3 s

Time = 5.4

Updating BC
debug :
49.48214285714285

DICPCG:  Solving for T, Initial residual = 0.08044741778463281, Final residual = 1.480352635113868e-07, No Iterations 6
Exporting analytical solution
L2 norm of the relative error = 0.0001849296654628245
Linf norm of the relative error = 0.0002276715402730995
L2 norm of the error = 0.008636867347867561
Linf norm of the error = 0.01050419568935013
ExecutionTime = 0.36 s  ClockTime = 3 s

Time = 5.5

Updating BC
debug :
49.88214285714285

DICPCG:  Solving for T, Initial residual = 0.08044738500318172, Final residual = 1.480349007112686e-07, No Iterations 6
Exporting analytical solution
L2 norm of the relative error = 0.0001849971307265234
Linf norm of the relative error = 0.000226574101760395
L2 norm of the error = 0.008712456004182722
Linf norm of the error = 0.01054419226067438
ExecutionTime = 0.37 s  ClockTime = 3 s

Time = 5.6

Updating BC
debug :
50.28214285714284

DICPCG:  Solving for T, Initial residual = 0.08044735282914478, Final residual = 1.480345449188195e-07, No Iterations 6
Exporting analytical solution
L2 norm of the relative error = 0.0001850323072102018
Linf norm of the relative error = 0.0002254782783413282
L2 norm of the error = 0.008786630440305625
Linf norm of the error = 0.01058338668964609
ExecutionTime = 0.37 s  ClockTime = 3 s

Time = 5.7

Updating BC
debug :
50.68214285714284

DICPCG:  Solving for T, Initial residual = 0.08044732125902344, Final residual = 1.480341960385509e-07, No Iterations 6
Exporting analytical solution
L2 norm of the relative error = 0.0001850365205336341
Linf norm of the relative error = 0.0002243843766006513
L2 norm of the error = 0.008859412822012452
Linf norm of the error = 0.01062179542733332
ExecutionTime = 0.38 s  ClockTime = 3 s

Time = 5.8

Updating BC
debug :
51.08214285714284

DICPCG:  Solving for T, Initial residual = 0.08044729028784063, Final residual = 1.480338539688949e-07, No Iterations 6
Exporting analytical solution
L2 norm of the relative error = 0.0001850110500320493
Linf norm of the relative error = 0.000223292684423172
L2 norm of the error = 0.00893082530335991
Linf norm of the error = 0.01065943452265117
ExecutionTime = 0.39 s  ClockTime = 4 s

Time = 5.9

Updating BC
debug :
51.48214285714284

DICPCG:  Solving for T, Initial residual = 0.08044725990944848, Final residual = 1.480335186037476e-07, No Iterations 6
Exporting analytical solution
L2 norm of the relative error = 0.0001849571300444807
Linf norm of the relative error = 0.0002222034722074618
L2 norm of the error = 0.009000889993467738
Linf norm of the error = 0.01069631964338669
ExecutionTime = 0.39 s  ClockTime = 4 s

Time = 6

Updating BC
debug :
51.88214285714284

DICPCG:  Solving for T, Initial residual = 0.08044723011677749, Final residual = 1.480331898337265e-07, No Iterations 6
Exporting analytical solution
L2 norm of the relative error = 0.0001848759512092937
Linf norm of the relative error = 0.0002211169939668492
L2 norm of the error = 0.009069628926675096
Linf norm of the error = 0.01073246609466594
ExecutionTime = 0.4 s  ClockTime = 4 s

Time = 6.1

Updating BC
debug :
52.28214285714283

DICPCG:  Solving for T, Initial residual = 0.08044720090204314, Final residual = 1.480328675472059e-07, No Iterations 6
Exporting analytical solution
L2 norm of the relative error = 0.0001847686617600482
Linf norm of the relative error = 0.0002200334883238582
L2 norm of the error = 0.009137064035798198
Linf norm of the error = 0.0107678888348488
ExecutionTime = 0.41 s  ClockTime = 4 s

Time = 6.2

Updating BC
debug :
52.68214285714284

DICPCG:  Solving for T, Initial residual = 0.08044717225691292, Final residual = 1.480325516311447e-07, No Iterations 6
Exporting analytical solution
L2 norm of the relative error = 0.0001846363688156799
Linf norm of the relative error = 0.000218953179426173
L2 norm of the error = 0.009203217128224351
Linf norm of the error = 0.01080260248993881
ExecutionTime = 0.41 s  ClockTime = 4 s

Time = 6.3

Updating BC
debug :
53.08214285714283

DICPCG:  Solving for T, Initial residual = 0.08044714417264262, Final residual = 1.480322419718109e-07, No Iterations 6
Exporting analytical solution
L2 norm of the relative error = 0.0001844801396601563
Linf norm of the relative error = 0.0002178762777785473
L2 norm of the error = 0.009268109864610862
Linf norm of the error = 0.01083662136601049
ExecutionTime = 0.42 s  ClockTime = 4 s

Time = 6.4

Updating BC
debug :
53.48214285714283

DICPCG:  Solving for T, Initial residual = 0.08044711664018937, Final residual = 1.480319384552723e-07, No Iterations 6
Exporting analytical solution
L2 norm of the relative error = 0.0001843010030071613
Linf norm of the relative error = 0.0002168029810141997
L2 norm of the error = 0.009331763739954405
Linf norm of the error = 0.01086995946059943
ExecutionTime = 0.42 s  ClockTime = 4 s

Time = 6.5

Updating BC
debug :
53.88214285714282

DICPCG:  Solving for T, Initial residual = 0.08044708965030035, Final residual = 1.480316409678561e-07, No Iterations 6
Exporting analytical solution
L2 norm of the relative error = 0.0001840999502463832
Linf norm of the relative error = 0.0002157334746042694
L2 norm of the error = 0.009394200066829551
Linf norm of the error = 0.01090263047281326
ExecutionTime = 0.43 s  ClockTime = 4 s

Time = 6.6

Updating BC
debug :
54.28214285714283

DICPCG:  Solving for T, Initial residual = 0.08044706319358752, Final residual = 1.480313493965134e-07, No Iterations 6
Exporting analytical solution
L2 norm of the relative error = 0.0001838779366682258
Linf norm of the relative error = 0.0002146679325184996
L2 norm of the error = 0.009455439960594347
Linf norm of the error = 0.01093464781266107
ExecutionTime = 0.44 s  ClockTime = 4 s

Time = 6.7

Updating BC
debug :
54.68214285714282

DICPCG:  Solving for T, Initial residual = 0.08044703726058991, Final residual = 1.480310636291239e-07, No Iterations 6
Exporting analytical solution
L2 norm of the relative error = 0.0001836358826646637
Linf norm of the relative error = 0.0002136065178381499
L2 norm of the error = 0.00951550432639108
Linf norm of the error = 0.01096602460951601
ExecutionTime = 0.45 s  ClockTime = 4 s

Time = 6.8

Updating BC
debug :
55.08214285714283

DICPCG:  Solving for T, Initial residual = 0.08044701184181868, Final residual = 1.480307835546686e-07, No Iterations 6
Exporting analytical solution
L2 norm of the relative error = 0.0001833746749042339
Linf norm of the relative error = 0.0002125493833289391
L2 norm of the error = 0.009574413847777352
Linf norm of the error = 0.01099677371998098
ExecutionTime = 0.45 s  ClockTime = 4 s

Time = 6.9

Updating BC
debug :
55.48214285714282

DICPCG:  Solving for T, Initial residual = 0.08044698692779699, Final residual = 1.480305090634379e-07, No Iterations 6
Exporting analytical solution
L2 norm of the relative error = 0.0001830951674798384
Linf norm of the relative error = 0.0002114966719752143
L2 norm of the error = 0.009632188976849273
Linf norm of the error = 0.01102690773510773
ExecutionTime = 0.47 s  ClockTime = 4 s

Time = 7

Updating BC
debug :
55.88214285714282

DICPCG:  Solving for T, Initial residual = 0.08044696250909426, Final residual = 1.48030240047177e-07, No Iterations 6
Exporting analytical solution
L2 norm of the relative error = 0.0001827981830276604
Linf norm of the relative error = 0.0002104485174830898
L2 norm of the error = 0.009688849925691242
Linf norm of the error = 0.01105643898726782
ExecutionTime = 0.47 s  ClockTime = 4 s

Time = 7.1

Updating BC
debug :
56.28214285714282

DICPCG:  Solving for T, Initial residual = 0.08044693857634685, Final residual = 1.480299763991639e-07, No Iterations 6
Exporting analytical solution
L2 norm of the relative error = 0.0001824845138170852
Linf norm of the relative error = 0.0002094050447512467
L2 norm of the error = 0.009744416659066481
Linf norm of the error = 0.01108537955651911
ExecutionTime = 0.48 s  ClockTime = 4 s

Time = 7.2

Updating BC
debug :
56.68214285714282

DICPCG:  Solving for T, Initial residual = 0.0804469151202814, Final residual = 1.480297180143277e-07, No Iterations 6
Exporting analytical solution
L2 norm of the relative error = 0.0001821549228103921
Linf norm of the relative error = 0.0002083663703158846
L2 norm of the error = 0.009798908888200666
Linf norm of the error = 0.01111374127672349
ExecutionTime = 0.48 s  ClockTime = 4 s

Time = 7.3

Updating BC
debug :
57.08214285714281

DICPCG:  Solving for T, Initial residual = 0.08044689213173083, Final residual = 1.480294647892835e-07, No Iterations 6
Exporting analytical solution
L2 norm of the relative error = 0.0001818101446921489
Linf norm of the relative error = 0.0002073326027673397
L2 norm of the error = 0.009852346065569374
Linf norm of the error = 0.01114153574120991
ExecutionTime = 0.49 s  ClockTime = 4 s

Time = 7.4

Updating BC
debug :
57.48214285714281

DICPCG:  Solving for T, Initial residual = 0.08044686960164309, Final residual = 1.480292166223392e-07, No Iterations 6
Exporting analytical solution
L2 norm of the relative error = 0.0001814508868683778
Linf norm of the relative error = 0.0002063038431481014
L2 norm of the error = 0.009904747380605145
Linf norm of the error = 0.01116877430843033
ExecutionTime = 0.5 s  ClockTime = 4 s

Time = 7.5

Updating BC
debug :
57.88214285714281

DICPCG:  Solving for T, Initial residual = 0.0804468475210947, Final residual = 1.480289734135853e-07, No Iterations 6
Exporting analytical solution
L2 norm of the relative error = 0.0001810778304349688
Linf norm of the relative error = 0.0002052801853215887
L2 norm of the error = 0.009956131756208873
Linf norm of the error = 0.01119546810697614
ExecutionTime = 0.5 s  ClockTime = 5 s

Time = 7.6

Updating BC
debug :
58.28214285714281

DICPCG:  Solving for T, Initial residual = 0.08044682588129547, Final residual = 1.480287350648839e-07, No Iterations 6
Exporting analytical solution
L2 norm of the relative error = 0.000180691631116085
Linf norm of the relative error = 0.000204261716329472
L2 norm of the error = 0.01000651784601819
Linf norm of the error = 0.01122162804085036
ExecutionTime = 0.51 s  ClockTime = 5 s

Time = 7.7

Updating BC
debug :
58.68214285714281

DICPCG:  Solving for T, Initial residual = 0.0804468046735948, Final residual = 1.480285014798647e-07, No Iterations 6
Exporting analytical solution
L2 norm of the relative error = 0.0001802929201725633
Linf norm of the relative error = 0.0002032485167242528
L2 norm of the error = 0.01005592403234553
Linf norm of the error = 0.01124726479422833
ExecutionTime = 0.52 s  ClockTime = 5 s

Time = 7.8

Updating BC
debug :
59.08214285714281

DICPCG:  Solving for T, Initial residual = 0.08044678388948551, Final residual = 1.480282725639305e-07, No Iterations 6
Exporting analytical solution
L2 norm of the relative error = 0.0001798823052806007
Linf norm of the relative error = 0.0002022406608872677
L2 norm of the error = 0.01010436842471484
Linf norm of the error = 0.01127238883620407
ExecutionTime = 0.52 s  ClockTime = 5 s

Time = 7.9

Updating BC
debug :
59.4821428571428

DICPCG:  Solving for T, Initial residual = 0.08044676352060477, Final residual = 1.48028048224242e-07, No Iterations 6
Exporting analytical solution
L2 norm of the relative error = 0.0001794603713816147
Linf norm of the relative error = 0.0002012382173296804
L2 norm of the error = 0.01015186885896209
Linf norm of the error = 0.01129701042534492
ExecutionTime = 0.53 s  ClockTime = 5 s

Time = 8

Updating BC
debug :
59.8821428571428

DICPCG:  Solving for T, Initial residual = 0.08044674355873765, Final residual = 1.480278283697346e-07, No Iterations 6
Exporting analytical solution
L2 norm of the relative error = 0.0001790276815032635
Linf norm of the relative error = 0.000200241248978308
L2 norm of the error = 0.01019844289681283
Linf norm of the error = 0.01132113961411108
ExecutionTime = 0.54 s  ClockTime = 5 s

Time = 8.1

Updating BC
debug :
60.2821428571428

DICPCG:  Solving for T, Initial residual = 0.08044672399581797, Final residual = 1.4802761291107e-07, No Iterations 6
Exporting analytical solution
L2 norm of the relative error = 0.0001785847775527322
Linf norm of the relative error = 0.0001992498134459053
L2 norm of the error = 0.01024410782591735
Linf norm of the error = 0.01134478625307622
ExecutionTime = 0.54 s  ClockTime = 5 s

Time = 8.2

Updating BC
debug :
60.6821428571428

DICPCG:  Solving for T, Initial residual = 0.0804467048239251, Final residual = 1.480274017606094e-07, No Iterations 6
Exporting analytical solution
L2 norm of the relative error = 0.0001781321810825831
Linf norm of the relative error = 0.0001982639632921189
L2 norm of the error = 0.01028888066027965
Linf norm of the error = 0.01136795999526186
ExecutionTime = 0.55 s  ClockTime = 5 s

Time = 8.3

Updating BC
debug :
61.0821428571428

DICPCG:  Solving for T, Initial residual = 0.08044668603528833, Final residual = 1.480271948324368e-07, No Iterations 6
Exporting analytical solution
L2 norm of the relative error = 0.0001776703940299436
Linf norm of the relative error = 0.0001972837462654711
L2 norm of the error = 0.01033277814104488
Linf norm of the error = 0.01139067030000263
ExecutionTime = 0.5600000000000001 s  ClockTime = 5 s

Time = 8.4

Updating BC
debug :
61.4821428571428

DICPCG:  Solving for T, Initial residual = 0.08044666762228109, Final residual = 1.480269920422916e-07, No Iterations 6
Exporting analytical solution
L2 norm of the relative error = 0.0001771998994299567
Linf norm of the relative error = 0.0001963092055413436
L2 norm of the error = 0.01037581673762218
Linf norm of the error = 0.01141292643715985
ExecutionTime = 0.57 s  ClockTime = 5 s

Time = 8.5

Updating BC
debug :
61.8821428571428

DICPCG:  Solving for T, Initial residual = 0.08044664957742252, Final residual = 1.480267933075727e-07, No Iterations 6
Exporting analytical solution
L2 norm of the relative error = 0.0001767211621037866
Linf norm of the relative error = 0.000195340379940979
L2 norm of the error = 0.01041801264908462
Linf norm of the error = 0.01143473749079504
ExecutionTime = 0.58 s  ClockTime = 5 s

Time = 8.6

Updating BC
debug :
62.28214285714279

DICPCG:  Solving for T, Initial residual = 0.08044663189337631, Final residual = 1.48026598547287e-07, No Iterations 6
Exporting analytical solution
L2 norm of the relative error = 0.0001762346293221582
Linf norm of the relative error = 0.0001943773041438541
L2 norm of the error = 0.01045938180582912
Linf norm of the error = 0.01145611236297839
ExecutionTime = 0.58 s  ClockTime = 5 s

Time = 8.7

Updating BC
debug :
62.68214285714279

DICPCG:  Solving for T, Initial residual = 0.08044661456294649, Final residual = 1.480264076820377e-07, No Iterations 6
Exporting analytical solution
L2 norm of the relative error = 0.0001757407314452828
Linf norm of the relative error = 0.000193420008890387
L2 norm of the error = 0.01049993987147843
Linf norm of the error = 0.01147705977753333
ExecutionTime = 0.58 s  ClockTime = 5 s

Time = 8.8

Updating BC
debug :
63.08214285714279

DICPCG:  Solving for T, Initial residual = 0.0804465975790775, Final residual = 1.480262206340066e-07, No Iterations 6
Exporting analytical solution
L2 norm of the relative error = 0.0001752398825395595
Linf norm of the relative error = 0.000192468521174953
L2 norm of the error = 0.01053970224497748
Linf norm of the error = 0.01149758828368874
ExecutionTime = 0.59 s  ClockTime = 5 s

Time = 8.9

Updating BC
debug :
63.48214285714279

DICPCG:  Solving for T, Initial residual = 0.08044658093485212, Final residual = 1.480260373269106e-07, No Iterations 6
Exporting analytical solution
L2 norm of the relative error = 0.0001747324809719754
Linf norm of the relative error = 0.0001915228644258809
L2 norm of the error = 0.0105786840628729
Linf norm of the error = 0.0115177062594114
ExecutionTime = 0.59 s  ClockTime = 5 s

Time = 9

Updating BC
debug :
63.88214285714279

DICPCG:  Solving for T, Initial residual = 0.08044656462348837, Final residual = 1.480258576859861e-07, No Iterations 6
Exporting analytical solution
L2 norm of the relative error = 0.0001742189099830876
Linf norm of the relative error = 0.0001905830586845342
L2 norm of the error = 0.01061690020176568
Linf norm of the error = 0.01153742191511498
ExecutionTime = 0.61 s  ClockTime = 5 s

Time = 9.1

Updating BC
debug :
64.28214285714279

DICPCG:  Solving for T, Initial residual = 0.080446548638337, Final residual = 1.480256816379231e-07, No Iterations 6
Exporting analytical solution
L2 norm of the relative error = 0.0001736995382390032
Linf norm of the relative error = 0.0001896491207689441
L2 norm of the error = 0.01065436528089792
Linf norm of the error = 0.01155674329685752
ExecutionTime = 0.61 s  ClockTime = 5 s

Time = 9.2

Updating BC
debug :
64.68214285714279

DICPCG:  Solving for T, Initial residual = 0.08044653297288083, Final residual = 1.480255091109012e-07, No Iterations 6
Exporting analytical solution
L2 norm of the relative error = 0.0001731747203631931
Linf norm of the relative error = 0.0001887210644339355
L2 norm of the error = 0.01069109366486644
Linf norm of the error = 0.01157567828971651
ExecutionTime = 0.62 s  ClockTime = 6 s

Time = 9.3

Updating BC
debug :
65.08214285714278

DICPCG:  Solving for T, Initial residual = 0.08044651762073059, Final residual = 1.48025340034516e-07, No Iterations 6
Exporting analytical solution
L2 norm of the relative error = 0.000172644797448861
Linf norm of the relative error = 0.0001877989005219211
L2 norm of the error = 0.0107270994664483
Linf norm of the error = 0.01159423462097209
ExecutionTime = 0.62 s  ClockTime = 6 s

Time = 9.4

Updating BC
debug :
65.48214285714278

DICPCG:  Solving for T, Initial residual = 0.08044650257562456, Final residual = 1.480251743397663e-07, No Iterations 6
Exporting analytical solution
L2 norm of the relative error = 0.0001721100975524562
Linf norm of the relative error = 0.0001868826371097005
L2 norm of the error = 0.01076239654951743
Linf norm of the error = 0.011612419863404
ExecutionTime = 0.63 s  ClockTime = 6 s

Time = 9.5

Updating BC
debug :
65.88214285714278

DICPCG:  Solving for T, Initial residual = 0.08044648783142522, Final residual = 1.480250119590286e-07, No Iterations 6
Exporting analytical solution
L2 norm of the relative error = 0.0001715709361690447
Linf norm of the relative error = 0.0001859722796429227
L2 norm of the error = 0.01079699853204478
Linf norm of the error = 0.01163024143816926
ExecutionTime = 0.63 s  ClockTime = 6 s

Time = 9.6

Updating BC
debug :
66.28214285714279

DICPCG:  Solving for T, Initial residual = 0.08044647338211636, Final residual = 1.480248528260371e-07, No Iterations 6
Exporting analytical solution
L2 norm of the relative error = 0.000171027616690227
Linf norm of the relative error = 0.0001850678310716298
L2 norm of the error = 0.01083091878917183
Linf norm of the error = 0.01164770661807069
ExecutionTime = 0.64 s  ClockTime = 6 s

Time = 9.7

Updating BC
debug :
66.68214285714278

DICPCG:  Solving for T, Initial residual = 0.08044645922180232, Final residual = 1.480246968758186e-07, No Iterations 6
Exporting analytical solution
L2 norm of the relative error = 0.000170480430845161
Linf norm of the relative error = 0.0001841692919741582
L2 norm of the error = 0.01086417045634189
Linf norm of the error = 0.01166482253041323
ExecutionTime = 0.65 s  ClockTime = 6 s

Time = 9.8

Updating BC
debug :
67.08214285714277

DICPCG:  Solving for T, Initial residual = 0.08044644534470347, Final residual = 1.480245440447356e-07, No Iterations 6
Exporting analytical solution
L2 norm of the relative error = 0.0001699296591252619
Linf norm of the relative error = 0.0001832766606780469
L2 norm of the error = 0.01089676643247702
Linf norm of the error = 0.011681596159967
ExecutionTime = 0.65 s  ClockTime = 6 s

Time = 9.9

Updating BC
debug :
67.48214285714278

DICPCG:  Solving for T, Initial residual = 0.08044643174515685, Final residual = 1.480243942703972e-07, No Iterations 6
Exporting analytical solution
L2 norm of the relative error = 0.0001693755711932949
Linf norm of the relative error = 0.0001823899333734297
L2 norm of the error = 0.0109287193831998
Linf norm of the error = 0.01169803435173833
ExecutionTime = 0.66 s  ClockTime = 6 s

Time = 10

Updating BC
debug :
67.88214285714278

DICPCG:  Solving for T, Initial residual = 0.08044641841761221, Final residual = 1.48024247491651e-07, No Iterations 6
Exporting analytical solution
L2 norm of the relative error = 0.0001688184262772663
Linf norm of the relative error = 0.0001815091042247431
L2 norm of the error = 0.01096004174408149
Linf norm of the error = 0.01171414381390434
ExecutionTime = 0.66 s  ClockTime = 6 s


Relative error L2 norm in time = 0.0005275484199338507
Relative error Linf norm in time = 0.0002605626006489614

End

Unsteady solution took  = 5.795115 seconds
/*---------------------------------------------------------------------------*\
| =========                 |                                                 |
| \\      /  F ield         | OpenFOAM: The Open Source CFD Toolbox           |
|  \\    /   O peration     | Version:  v2012                                 |
|   \\  /    A nd           | Website:  www.openfoam.com                      |
|    \\/     M anipulation  |                                                 |
\*---------------------------------------------------------------------------*/
Build  : _7bdb509494-20201222 OPENFOAM=2012
Arch   : "LSB;label=32;scalar=64"
Exec   : analyticalBenchmark_unsteady
Date   : Feb 03 2021
Time   : 16:35:57
Host   : inspiron-UM
PID    : 26201
I/O    : uncollated
Case   : /media/Data/ITHACA-FV/tutorials/directHeatTransfer/analyticalBenchmark_unsteady/coarseMesh
nProcs : 1
trapFpe: Floating point exception trapping enabled (FOAM_SIGFPE).
fileModificationChecking : Monitoring run-time modified files using timeStampMaster (fileModificationSkew 5, maxFileModificationPolls 20)
allowSystemOperations : Allowing user-supplied system call operations

// * * * * * * * * * * * * * * * * * * * * * * * * * * * * * * * * * * * * * //
Create time

Create mesh for time = 0


SIMPLE: convergence criteria
    field T	 tolerance 1e-06
    field lambda	 tolerance 1e-06
    field deltaT	 tolerance 1e-06

Create field T
Offline don't exist, performing the Offline Solve
POD don't exist, performing a POD decomposition
debug :
0.04999999999999999, 1, 0.05
27.88214285714286

Thermal diffusivity = diffusivity [0 2 -1 0 0 0 0] 0.1333333333333333 m2/s
Time = 0.2

Updating BC
debug :
28.68214285714286

DICPCG:  Solving for T, Initial residual = 0.1303222276549936, Final residual = 3.989458693974678e-07, No Iterations 10
Exporting analytical solution
L2 norm of the relative error = 4.468182171866942e-05
Linf norm of the relative error = 0.0001305704958245614
L2 norm of the error = 0.001249720885930814
Linf norm of the error = 0.00330899139752816
ExecutionTime = 0.01 s  ClockTime = 0 s

Time = 0.4

Updating BC
debug :
29.48214285714286

DICPCG:  Solving for T, Initial residual = 0.1480114198043249, Final residual = 3.074882599609049e-07, No Iterations 8
Exporting analytical solution
L2 norm of the relative error = 7.540222261186447e-05
Linf norm of the relative error = 0.0002022137538948942
L2 norm of the error = 0.002156872846536873
Linf norm of the error = 0.005285764963449679
ExecutionTime = 0.02 s  ClockTime = 0 s

Time = 0.6

Updating BC
debug :
30.28214285714286

DICPCG:  Solving for T, Initial residual = 0.1480542641127298, Final residual = 3.07903588689546e-07, No Iterations 8
Exporting analytical solution
L2 norm of the relative error = 9.327888326559968e-05
Linf norm of the relative error = 0.0002257962580305293
L2 norm of the error = 0.002722437901583095
Linf norm of the error = 0.006083178739686446
ExecutionTime = 0.03 s  ClockTime = 0 s

Time = 0.8

Updating BC
debug :
31.08214285714286

DICPCG:  Solving for T, Initial residual = 0.1480708180878373, Final residual = 3.079644158730789e-07, No Iterations 8
Exporting analytical solution
L2 norm of the relative error = 0.0001066419068701126
Linf norm of the relative error = 0.0002418518773607443
L2 norm of the error = 0.003179941055291172
Linf norm of the error = 0.006710006254344592
ExecutionTime = 0.03 s  ClockTime = 0 s

Time = 1

Updating BC
debug :
31.88214285714286

DICPCG:  Solving for T, Initial residual = 0.1480821254030037, Final residual = 3.080524569679618e-07, No Iterations 8
Exporting analytical solution
L2 norm of the relative error = 0.0001170735481360355
Linf norm of the relative error = 0.0002503306626112736
L2 norm of the error = 0.003566875965756604
Linf norm of the error = 0.007145778046798057
ExecutionTime = 0.04 s  ClockTime = 0 s

Time = 1.2

Updating BC
debug :
32.68214285714286

DICPCG:  Solving for T, Initial residual = 0.1480886543650815, Final residual = 3.080794606691669e-07, No Iterations 8
Exporting analytical solution
L2 norm of the relative error = 0.0001256753167878633
Linf norm of the relative error = 0.0002557422201478325
L2 norm of the error = 0.003912135281703746
Linf norm of the error = 0.007504927696764696
ExecutionTime = 0.05 s  ClockTime = 1 s

Time = 1.4

Updating BC
debug :
33.48214285714285

DICPCG:  Solving for T, Initial residual = 0.1480930431722007, Final residual = 3.081088703573999e-07, No Iterations 8
Exporting analytical solution
L2 norm of the relative error = 0.0001330011600046387
Linf norm of the relative error = 0.0002585815078331679
L2 norm of the error = 0.004229440735656538
Linf norm of the error = 0.007794981654981825
ExecutionTime = 0.06 s  ClockTime = 1 s

Time = 1.6

Updating BC
debug :
34.28214285714286

DICPCG:  Solving for T, Initial residual = 0.1480957198634886, Final residual = 3.081206363375012e-07, No Iterations 8
Exporting analytical solution
L2 norm of the relative error = 0.0001394097682254653
Linf norm of the relative error = 0.0002600031876805918
L2 norm of the error = 0.004528089834534753
Linf norm of the error = 0.008045708852769451
ExecutionTime = 0.07000000000000001 s  ClockTime = 1 s

Time = 1.8

Updating BC
debug :
35.08214285714286

DICPCG:  Solving for T, Initial residual = 0.1480974284728296, Final residual = 3.081309795516828e-07, No Iterations 8
Exporting analytical solution
L2 norm of the relative error = 0.000145105617986741
Linf norm of the relative error = 0.0002603334590271093
L2 norm of the error = 0.004813154567433514
Linf norm of the error = 0.008264051091344982
ExecutionTime = 0.07000000000000001 s  ClockTime = 1 s

Time = 2

Updating BC
debug :
35.88214285714285

DICPCG:  Solving for T, Initial residual = 0.1480984199828924, Final residual = 3.081351216562459e-07, No Iterations 8
Exporting analytical solution
L2 norm of the relative error = 0.0001502178704882228
Linf norm of the relative error = 0.0002599790706652551
L2 norm of the error = 0.005087733284102021
Linf norm of the error = 0.008460668905080126
ExecutionTime = 0.07000000000000001 s  ClockTime = 1 s

Time = 2.2

Updating BC
debug :
36.68214285714285

DICPCG:  Solving for T, Initial residual = 0.1480989732705533, Final residual = 3.081379969004421e-07, No Iterations 8
Exporting analytical solution
L2 norm of the relative error = 0.0001548257915093123
Linf norm of the relative error = 0.0002591141065250559
L2 norm of the error = 0.005353463064484606
Linf norm of the error = 0.008639716114274165
ExecutionTime = 0.08 s  ClockTime = 1 s

Time = 2.4

Updating BC
debug :
37.48214285714286

DICPCG:  Solving for T, Initial residual = 0.1480992177651389, Final residual = 3.081385132261999e-07, No Iterations 8
Exporting analytical solution
L2 norm of the relative error = 0.0001589832405340155
Linf norm of the relative error = 0.0002579038997831368
L2 norm of the error = 0.005611244786203071
Linf norm of the error = 0.008805615902439001
ExecutionTime = 0.08 s  ClockTime = 1 s

Time = 2.6

Updating BC
debug :
38.28214285714286

DICPCG:  Solving for T, Initial residual = 0.1480992692842374, Final residual = 3.081383285103249e-07, No Iterations 8
Exporting analytical solution
L2 norm of the relative error = 0.0001627286737779424
Linf norm of the relative error = 0.0002564360759082748
L2 norm of the error = 0.005861508993586589
Linf norm of the error = 0.008960595973270813
ExecutionTime = 0.1 s  ClockTime = 1 s

Time = 2.8

Updating BC
debug :
39.08214285714286

DICPCG:  Solving for T, Initial residual = 0.1480991902951493, Final residual = 3.08137233079679e-07, No Iterations 8
Exporting analytical solution
L2 norm of the relative error = 0.0001660926768431073
Linf norm of the relative error = 0.0002547840756062673
L2 norm of the error = 0.006104462336380358
Linf norm of the error = 0.009106660280870926
ExecutionTime = 0.1 s  ClockTime = 1 s

Time = 3

Updating BC
debug :
39.88214285714285

DICPCG:  Solving for T, Initial residual = 0.148099030701653, Final residual = 3.081358217148112e-07, No Iterations 8
Exporting analytical solution
L2 norm of the relative error = 0.0001691011795559104
Linf norm of the relative error = 0.0002529924519218652
L2 norm of the error = 0.006340190707620762
Linf norm of the error = 0.00924499109434862
ExecutionTime = 0.11 s  ClockTime = 1 s

Time = 3.2

Updating BC
debug :
40.68214285714286

DICPCG:  Solving for T, Initial residual = 0.1480988195952249, Final residual = 3.081340784345981e-07, No Iterations 8
Exporting analytical solution
L2 norm of the relative error = 0.000171777582620405
Linf norm of the relative error = 0.0002510967160659878
L2 norm of the error = 0.006568738155798372
Linf norm of the error = 0.009376576862017316
ExecutionTime = 0.11 s  ClockTime = 1 s

Time = 3.4

Updating BC
debug :
41.48214285714286

DICPCG:  Solving for T, Initial residual = 0.1480985787265835, Final residual = 3.081322264465119e-07, No Iterations 8
Exporting analytical solution
L2 norm of the relative error = 0.0001741436182354048
Linf norm of the relative error = 0.0002491207291110014
L2 norm of the error = 0.006790139441230294
Linf norm of the error = 0.009502075438547308
ExecutionTime = 0.12 s  ClockTime = 1 s

Time = 3.6

Updating BC
debug :
42.28214285714286

DICPCG:  Solving for T, Initial residual = 0.1480983212970221, Final residual = 3.081302804987606e-07, No Iterations 8
Exporting analytical solution
L2 norm of the relative error = 0.0001762198590662396
Linf norm of the relative error = 0.0002470833951979892
L2 norm of the error = 0.007004441399255594
Linf norm of the error = 0.009622028811797634
ExecutionTime = 0.13 s  ClockTime = 1 s

Time = 3.8

Updating BC
debug :
43.08214285714286

DICPCG:  Solving for T, Initial residual = 0.1480980567396238, Final residual = 3.081283265455682e-07, No Iterations 8
Exporting analytical solution
L2 norm of the relative error = 0.0001780258832362856
Linf norm of the relative error = 0.0002449985408195385
L2 norm of the error = 0.007211709649437003
Linf norm of the error = 0.009736837791336939
ExecutionTime = 0.14 s  ClockTime = 1 s

Time = 4

Updating BC
debug :
43.88214285714287

DICPCG:  Solving for T, Initial residual = 0.1480977908651909, Final residual = 3.081263767796754e-07, No Iterations 8
Exporting analytical solution
L2 norm of the relative error = 0.0001795803551238207
Linf norm of the relative error = 0.0002428773308911517
L2 norm of the error = 0.007412031454755806
Linf norm of the error = 0.009846840094773768
ExecutionTime = 0.14 s  ClockTime = 1 s

Time = 4.2

Updating BC
debug :
44.68214285714286

DICPCG:  Solving for T, Initial residual = 0.1480975276581425, Final residual = 3.081244642729892e-07, No Iterations 8
Exporting analytical solution
L2 norm of the relative error = 0.0001809010299627157
Linf norm of the relative error = 0.0002407285149851266
L2 norm of the error = 0.007605514368278723
Linf norm of the error = 0.009952309331140441
ExecutionTime = 0.15 s  ClockTime = 1 s

Time = 4.4

Updating BC
debug :
45.48214285714286

DICPCG:  Solving for T, Initial residual = 0.1480972695412372, Final residual = 3.081225951752959e-07, No Iterations 8
Exporting analytical solution
L2 norm of the relative error = 0.0001820047530233516
Linf norm of the relative error = 0.0002385593598891424
L2 norm of the error = 0.007792284012117034
Linf norm of the error = 0.01005348500928704
ExecutionTime = 0.15 s  ClockTime = 1 s

Time = 4.6

Updating BC
debug :
46.28214285714287

DICPCG:  Solving for T, Initial residual = 0.1480970180809313, Final residual = 3.081207815463969e-07, No Iterations 8
Exporting analytical solution
L2 norm of the relative error = 0.0001829074528716689
Linf norm of the relative error = 0.0002363758590105516
L2 norm of the error = 0.007972480985269094
Linf norm of the error = 0.01015057517695084
ExecutionTime = 0.16 s  ClockTime = 2 s

Time = 4.8

Updating BC
debug :
47.08214285714287

DICPCG:  Solving for T, Initial residual = 0.1480967741660354, Final residual = 3.081190253628042e-07, No Iterations 8
Exporting analytical solution
L2 norm of the relative error = 0.0001836241454962002
Linf norm of the relative error = 0.0002341831199103113
L2 norm of the error = 0.008146257900561631
Linf norm of the error = 0.01024376856741327
ExecutionTime = 0.16 s  ClockTime = 2 s

Time = 5

Updating BC
debug :
47.88214285714287

DICPCG:  Solving for T, Initial residual = 0.1480965382944164, Final residual = 3.08117330177395e-07, No Iterations 8
Exporting analytical solution
L2 norm of the relative error = 0.0001841689460444752
Linf norm of the relative error = 0.0002319854993628484
L2 norm of the error = 0.008313776525904516
Linf norm of the error = 0.01033323677168596
ExecutionTime = 0.17 s  ClockTime = 2 s

Time = 5.2

Updating BC
debug :
48.68214285714286

DICPCG:  Solving for T, Initial residual = 0.1480963106716433, Final residual = 3.081156956972623e-07, No Iterations 8
Exporting analytical solution
L2 norm of the relative error = 0.0001845550904229836
Linf norm of the relative error = 0.0002297867793153943
L2 norm of the error = 0.008475205292046871
Linf norm of the error = 0.01041913942101047
ExecutionTime = 0.18 s  ClockTime = 2 s

Time = 5.4

Updating BC
debug :
49.48214285714287

DICPCG:  Solving for T, Initial residual = 0.1480960913304935, Final residual = 3.08114122022855e-07, No Iterations 8
Exporting analytical solution
L2 norm of the relative error = 0.0001847949636578774
Linf norm of the relative error = 0.0002275902500550878
L2 norm of the error = 0.008630717114914657
Linf norm of the error = 0.01050162552346023
ExecutionTime = 0.19 s  ClockTime = 2 s

Time = 5.6

Updating BC
debug :
50.28214285714287

DICPCG:  Solving for T, Initial residual = 0.1480958801809691, Final residual = 3.081126077826443e-07, No Iterations 8
Exporting analytical solution
L2 norm of the relative error = 0.0001849001340268071
Linf norm of the relative error = 0.0002253987991314633
L2 norm of the error = 0.008780487570887768
Linf norm of the error = 0.01058083581152403
ExecutionTime = 0.19 s  ClockTime = 2 s

Time = 5.8

Updating BC
debug :
51.08214285714287

DICPCG:  Solving for T, Initial residual = 0.1480956770609533, Final residual = 3.081111517129973e-07, No Iterations 8
Exporting analytical solution
L2 norm of the relative error = 0.0001848813907618325
Linf norm of the relative error = 0.000223214963999963
L2 norm of the error = 0.008924693370379506
Linf norm of the error = 0.01065690351450144
ExecutionTime = 0.2 s  ClockTime = 2 s

Time = 6

Updating BC
debug :
51.88214285714287

DICPCG:  Solving for T, Initial residual = 0.1480954817603827, Final residual = 3.081097520034937e-07, No Iterations 8
Exporting analytical solution
L2 norm of the relative error = 0.0001847487840851111
Linf norm of the relative error = 0.0002210409826297738
L2 norm of the error = 0.009063511108378507
Linf norm of the error = 0.01072995550546807
ExecutionTime = 0.2 s  ClockTime = 2 s

Time = 6.2

Updating BC
debug :
52.68214285714286

DICPCG:  Solving for T, Initial residual = 0.148095294042885, Final residual = 3.081084069015021e-07, No Iterations 8
Exporting analytical solution
L2 norm of the relative error = 0.0001845116662221968
Linf norm of the relative error = 0.0002188788287678851
L2 norm of the error = 0.009197116246297037
Linf norm of the error = 0.0108001127618067
ExecutionTime = 0.21 s  ClockTime = 2 s

Time = 6.4

Updating BC
debug :
53.48214285714287

DICPCG:  Solving for T, Initial residual = 0.1480951136570465, Final residual = 3.081071144750742e-07, No Iterations 8
Exporting analytical solution
L2 norm of the relative error = 0.0001841787325288597
Linf norm of the relative error = 0.0002167302442081623
L2 norm of the error = 0.009325682294545492
Linf norm of the error = 0.01086749098353579
ExecutionTime = 0.21 s  ClockTime = 2 s

Time = 6.6

Updating BC
debug :
54.28214285714287

DICPCG:  Solving for T, Initial residual = 0.1480949403456179, Final residual = 3.081058728507587e-07, No Iterations 8
Exporting analytical solution
L2 norm of the relative error = 0.0001837580619796521
Linf norm of the relative error = 0.0002145967638834973
L2 norm of the error = 0.009449380161429181
Linf norm of the error = 0.01093220089347824
ExecutionTime = 0.22 s  ClockTime = 2 s

Time = 6.8

Updating BC
debug :
55.08214285714287

DICPCG:  Solving for T, Initial residual = 0.148094773850567, Final residual = 3.08104680123064e-07, No Iterations 8
Exporting analytical solution
L2 norm of the relative error = 0.0001832571565316545
Linf norm of the relative error = 0.0002124797384351278
L2 norm of the error = 0.009568377642177706
Linf norm of the error = 0.0109943486129751
ExecutionTime = 0.23 s  ClockTime = 2 s

Time = 7

Updating BC
debug :
55.88214285714287

DICPCG:  Solving for T, Initial residual = 0.1480946139168981, Final residual = 3.081035344506064e-07, No Iterations 8
Exporting analytical solution
L2 norm of the relative error = 0.0001826829789958047
Linf norm of the relative error = 0.0002103803529926017
L2 norm of the error = 0.009682839023509219
Linf norm of the error = 0.011054035881088
ExecutionTime = 0.23 s  ClockTime = 2 s

Time = 7.2

Updating BC
debug :
56.68214285714287

DICPCG:  Solving for T, Initial residual = 0.1480944602947763, Final residual = 3.081024340185012e-07, No Iterations 8
Exporting analytical solution
L2 norm of the relative error = 0.0001820419891935855
Linf norm of the relative error = 0.0002082996440249532
L2 norm of the error = 0.00979292478417032
Linf norm of the error = 0.01111136031269666
ExecutionTime = 0.25 s  ClockTime = 2 s

Time = 7.4

Updating BC
debug :
57.48214285714287

DICPCG:  Solving for T, Initial residual = 0.1480943127409992, Final residual = 3.081013770778947e-07, No Iterations 8
Exporting analytical solution
L2 norm of the relative error = 0.0001813401782589653
Linf norm of the relative error = 0.0002062385139233077
L2 norm of the error = 0.009898791374333239
Linf norm of the error = 0.0111664155753104
ExecutionTime = 0.26 s  ClockTime = 2 s

Time = 7.6

Updating BC
debug :
58.28214285714287

DICPCG:  Solving for T, Initial residual = 0.1480941710197754, Final residual = 3.081003619284623e-07, No Iterations 8
Exporting analytical solution
L2 norm of the relative error = 0.0001805831010230226
Linf norm of the relative error = 0.0002041977441197676
L2 norm of the error = 0.01000059105993403
Linf norm of the error = 0.01121929158629342
ExecutionTime = 0.26 s  ClockTime = 2 s

Time = 7.8

Updating BC
debug :
59.08214285714287

DICPCG:  Solving for T, Initial residual = 0.1480940349031739, Final residual = 3.080993869346146e-07, No Iterations 8
Exporting analytical solution
L2 norm of the relative error = 0.0001797759064682872
Linf norm of the relative error = 0.0002021780066951053
L2 norm of the error = 0.01009847182020818
Linf norm of the error = 0.01127007466526209
ExecutionTime = 0.27 s  ClockTime = 2 s

Time = 8

Updating BC
debug :
59.88214285714287

DICPCG:  Solving for T, Initial residual = 0.1480939041712909, Final residual = 3.080984505160451e-07, No Iterations 8
Exporting analytical solution
L2 norm of the relative error = 0.0001789233662795706
Linf norm of the relative error = 0.0002001798748570716
L2 norm of the error = 0.01019257728878866
Linf norm of the error = 0.01131884769671387
ExecutionTime = 0.27 s  ClockTime = 3 s

Time = 8.2

Updating BC
debug :
60.68214285714286

DICPCG:  Solving for T, Initial residual = 0.1480937786122635, Final residual = 3.080975511540217e-07, No Iterations 8
Exporting analytical solution
L2 norm of the relative error = 0.0001780299015434833
Linf norm of the relative error = 0.0001982038323268786
L2 norm of the error = 0.01028304673031171
Linf norm of the error = 0.01136569026654399
ExecutionTime = 0.28 s  ClockTime = 3 s

Time = 8.4

Updating BC
debug :
61.48214285714286

DICPCG:  Solving for T, Initial residual = 0.1480936580221727, Final residual = 3.080966873855464e-07, No Iterations 8
Exporting analytical solution
L2 norm of the relative error = 0.0001770996076670613
Linf norm of the relative error = 0.0001962502818398564
L2 norm of the error = 0.0103700150458753
Linf norm of the error = 0.01141067880278968
ExecutionTime = 0.29 s  ClockTime = 3 s

Time = 8.6

Updating BC
debug :
62.28214285714286

DICPCG:  Solving for T, Initial residual = 0.1480935422048717, Final residual = 3.080958578052412e-07, No Iterations 8
Exporting analytical solution
L2 norm of the relative error = 0.0001761362775982544
Linf norm of the relative error = 0.0001943195528161202
L2 norm of the error = 0.0104536128018738
Linf norm of the error = 0.01145388669985437
ExecutionTime = 0.29 s  ClockTime = 3 s

Time = 8.8

Updating BC
debug :
63.08214285714286

DICPCG:  Solving for T, Initial residual = 0.1480934309717825, Final residual = 3.080950610612745e-07, No Iterations 8
Exporting analytical solution
L2 norm of the relative error = 0.0001751434234370233
Linf norm of the relative error = 0.0001924119083213963
L2 norm of the error = 0.01053396627764338
Linf norm of the error = 0.01149538444397535
ExecutionTime = 0.3 s  ClockTime = 3 s

Time = 9

Updating BC
debug :
63.88214285714285

DICPCG:  Solving for T, Initial residual = 0.1480933241416589, Final residual = 3.080942958553241e-07, No Iterations 8
Exporting analytical solution
L2 norm of the relative error = 0.000174124296528823
Linf norm of the relative error = 0.0001905275513775693
L2 norm of the error = 0.01061119752812651
Linf norm of the error = 0.0115352397275359
ExecutionTime = 0.31 s  ClockTime = 3 s

Time = 9.2

Updating BC
debug :
64.68214285714285

DICPCG:  Solving for T, Initial residual = 0.1480932215403465, Final residual = 3.080935609394563e-07, No Iterations 8
Exporting analytical solution
L2 norm of the relative error = 0.0001730819061332961
Linf norm of the relative error = 0.0001886666306987673
L2 norm of the error = 0.01068542445844616
Linf norm of the error = 0.01157351756235414
ExecutionTime = 0.31 s  ClockTime = 3 s

Time = 9.4

Updating BC
debug :
65.48214285714285

DICPCG:  Solving for T, Initial residual = 0.1480931230005227, Final residual = 3.080928551152008e-07, No Iterations 8
Exporting analytical solution
L2 norm of the relative error = 0.0001720190367593652
Linf norm of the relative error = 0.0001868292459061313
L2 norm of the error = 0.01075676090779308
Linf norm of the error = 0.01161028038524137
ExecutionTime = 0.32 s  ClockTime = 3 s

Time = 9.6

Updating BC
debug :
66.28214285714284

DICPCG:  Solving for T, Initial residual = 0.148093028361456, Final residual = 3.080921772310396e-07, No Iterations 8
Exporting analytical solution
L2 norm of the relative error = 0.000170938264254958
Linf norm of the relative error = 0.0001850154522756681
L2 norm of the error = 0.01082531674045917
Linf norm of the error = 0.0116455881612012
ExecutionTime = 0.33 s  ClockTime = 3 s

Time = 9.8

Updating BC
debug :
67.08214285714284

DICPCG:  Solving for T, Initial residual = 0.148092937468751, Final residual = 3.080915261811574e-07, No Iterations 8
Exporting analytical solution
L2 norm of the relative error = 0.000169841970736535
Linf norm of the relative error = 0.0001832252650614371
L2 norm of the error = 0.01089119794224172
Linf norm of the error = 0.01167949848100136
ExecutionTime = 0.33 s  ClockTime = 3 s

Time = 10

Updating BC
debug :
67.88214285714284

DICPCG:  Solving for T, Initial residual = 0.1480928501741111, Final residual = 3.080909009032286e-07, No Iterations 8
Exporting analytical solution
L2 norm of the relative error = 0.0001687323584393962
Linf norm of the relative error = 0.0001814586634334518
L2 norm of the error = 0.01095450672074102
Linf norm of the error = 0.01171206665577529
ExecutionTime = 0.34 s  ClockTime = 3 s


Relative error L2 norm in time = 0.0005282445573768837
Relative error Linf norm in time = 0.0002603334590271093

End

Unsteady solution took  = 3.142575 seconds
/*---------------------------------------------------------------------------*\
| =========                 |                                                 |
| \\      /  F ield         | OpenFOAM: The Open Source CFD Toolbox           |
|  \\    /   O peration     | Version:  v2012                                 |
|   \\  /    A nd           | Website:  www.openfoam.com                      |
|    \\/     M anipulation  |                                                 |
\*---------------------------------------------------------------------------*/
Build  : _7bdb509494-20201222 OPENFOAM=2012
Arch   : "LSB;label=32;scalar=64"
Exec   : analyticalBenchmark_unsteady
Date   : Feb 03 2021
Time   : 16:36:00
Host   : inspiron-UM
PID    : 28062
I/O    : uncollated
Case   : /media/Data/ITHACA-FV/tutorials/directHeatTransfer/analyticalBenchmark_unsteady/coarseMesh
nProcs : 1
trapFpe: Floating point exception trapping enabled (FOAM_SIGFPE).
fileModificationChecking : Monitoring run-time modified files using timeStampMaster (fileModificationSkew 5, maxFileModificationPolls 20)
allowSystemOperations : Allowing user-supplied system call operations

// * * * * * * * * * * * * * * * * * * * * * * * * * * * * * * * * * * * * * //
Create time

Create mesh for time = 0


SIMPLE: convergence criteria
    field T	 tolerance 1e-06
    field lambda	 tolerance 1e-06
    field deltaT	 tolerance 1e-06

Create field T
Offline don't exist, performing the Offline Solve
POD don't exist, performing a POD decomposition
debug :
0.04999999999999999, 1, 0.05
27.88214285714286

Thermal diffusivity = diffusivity [0 2 -1 0 0 0 0] 0.1333333333333333 m2/s
Time = 0.5

Updating BC
debug :
29.88214285714286

DICPCG:  Solving for T, Initial residual = 0.2341399401686278, Final residual = 6.921809963240258e-07, No Iterations 14
Exporting analytical solution
L2 norm of the relative error = 7.297331212584021e-05
Linf norm of the relative error = 0.0001830109634543215
L2 norm of the error = 0.002101552506097277
Linf norm of the error = 0.004858170241782034
ExecutionTime = 0.02 s  ClockTime = 1 s

Time = 1

Updating BC
debug :
31.88214285714286

DICPCG:  Solving for T, Initial residual = 0.2934274034586145, Final residual = 4.192650911461741e-07, No Iterations 12
Exporting analytical solution
L2 norm of the relative error = 0.0001150593421928982
Linf norm of the relative error = 0.0002519957781250158
L2 norm of the error = 0.003510062626711148
Linf norm of the error = 0.00719255527497964
ExecutionTime = 0.03 s  ClockTime = 1 s

Time = 1.5

Updating BC
debug :
33.88214285714286

DICPCG:  Solving for T, Initial residual = 0.2935016398120414, Final residual = 4.196850022741714e-07, No Iterations 12
Exporting analytical solution
L2 norm of the relative error = 0.0001349223458454485
Linf norm of the relative error = 0.0002562765631766746
L2 norm of the error = 0.004336570914419146
Linf norm of the error = 0.007827207080421061
ExecutionTime = 0.03 s  ClockTime = 1 s

Time = 2

Updating BC
debug :
35.88214285714286

DICPCG:  Solving for T, Initial residual = 0.2935064239120095, Final residual = 4.196580647338988e-07, No Iterations 12
Exporting analytical solution
L2 norm of the relative error = 0.0001493618021180936
Linf norm of the relative error = 0.0002602841861558078
L2 norm of the error = 0.005060713851605694
Linf norm of the error = 0.008470171918197877
ExecutionTime = 0.04 s  ClockTime = 1 s

Time = 2.5

Updating BC
debug :
37.88214285714285

DICPCG:  Solving for T, Initial residual = 0.2935125606430702, Final residual = 4.196987439539776e-07, No Iterations 12
Exporting analytical solution
L2 norm of the relative error = 0.0001601125686514302
Linf norm of the relative error = 0.0002563862516402318
L2 norm of the error = 0.005710404969832589
Linf norm of the error = 0.008855981812935454
ExecutionTime = 0.05 s  ClockTime = 1 s

Time = 3

Updating BC
debug :
39.88214285714285

DICPCG:  Solving for T, Initial residual = 0.2935094170183019, Final residual = 4.196778287869008e-07, No Iterations 12
Exporting analytical solution
L2 norm of the relative error = 0.0001684087224969309
Linf norm of the relative error = 0.0002529428417971338
L2 norm of the error = 0.006315626445086008
Linf norm of the error = 0.009243024784403531
ExecutionTime = 0.06 s  ClockTime = 1 s

Time = 3.5

Updating BC
debug :
41.88214285714286

DICPCG:  Solving for T, Initial residual = 0.2935082688585304, Final residual = 4.196785018768535e-07, No Iterations 12
Exporting analytical solution
L2 norm of the relative error = 0.0001745827440542255
Linf norm of the relative error = 0.000247711002531374
L2 norm of the error = 0.006874290864112956
Linf norm of the error = 0.009547213954895994
ExecutionTime = 0.06 s  ClockTime = 1 s

Time = 4

Updating BC
debug :
43.88214285714286

DICPCG:  Solving for T, Initial residual = 0.2935050870553786, Final residual = 4.196639727692028e-07, No Iterations 12
Exporting analytical solution
L2 norm of the relative error = 0.0001790168188934865
Linf norm of the relative error = 0.0002427391175986095
L2 norm of the error = 0.007389734411284142
Linf norm of the error = 0.009841137136099576
ExecutionTime = 0.07000000000000001 s  ClockTime = 1 s

Time = 4.5

Updating BC
debug :
45.88214285714286

DICPCG:  Solving for T, Initial residual = 0.2935031381405966, Final residual = 4.196582748846335e-07, No Iterations 12
Exporting analytical solution
L2 norm of the relative error = 0.0001819738690554666
Linf norm of the relative error = 0.0002372238815816377
L2 norm of the error = 0.007862109671881553
Linf norm of the error = 0.01009197383697114
ExecutionTime = 0.07000000000000001 s  ClockTime = 1 s

Time = 5

Updating BC
debug :
47.88214285714286

DICPCG:  Solving for T, Initial residual = 0.2935006354669235, Final residual = 4.196481562853979e-07, No Iterations 12
Exporting analytical solution
L2 norm of the relative error = 0.0001837184961444572
Linf norm of the relative error = 0.0002318513217677577
L2 norm of the error = 0.00829414200519589
Linf norm of the error = 0.01032716669293166
ExecutionTime = 0.08 s  ClockTime = 1 s

Time = 5.5

Updating BC
debug :
49.88214285714286

DICPCG:  Solving for T, Initial residual = 0.2934988081572779, Final residual = 4.196418563364987e-07, No Iterations 12
Exporting analytical solution
L2 norm of the relative error = 0.0001844610696013063
Linf norm of the relative error = 0.0002263297773091987
L2 norm of the error = 0.008687946915538832
Linf norm of the error = 0.01053389175533681
ExecutionTime = 0.09 s  ClockTime = 1 s

Time = 6

Updating BC
debug :
51.88214285714286

DICPCG:  Solving for T, Initial residual = 0.2934968467514792, Final residual = 4.196343349811664e-07, No Iterations 12
Exporting analytical solution
L2 norm of the relative error = 0.0001843901066503776
Linf norm of the relative error = 0.0002209319439972816
L2 norm of the error = 0.009046448514809511
Linf norm of the error = 0.01072456721329473
ExecutionTime = 0.1 s  ClockTime = 2 s

Time = 6.5

Updating BC
debug :
53.88214285714285

DICPCG:  Solving for T, Initial residual = 0.2934952773295035, Final residual = 4.196286589237712e-07, No Iterations 12
Exporting analytical solution
L2 norm of the relative error = 0.0001836584267035204
Linf norm of the relative error = 0.000215548268915632
L2 norm of the error = 0.009372246240054441
Linf norm of the error = 0.01089434393240651
ExecutionTime = 0.1 s  ClockTime = 2 s

Time = 7

Updating BC
debug :
55.88214285714285

DICPCG:  Solving for T, Initial residual = 0.2934937163065951, Final residual = 4.196228056705562e-07, No Iterations 12
Exporting analytical solution
L2 norm of the relative error = 0.0001823969057343659
Linf norm of the relative error = 0.0002102975891007887
L2 norm of the error = 0.009668097616643393
[...]
27.85992063492063

Thermal diffusivity = diffusivity [0 2 -1 0 0 0 0] 0.1333333333333333 m2/s
Time = 0.5

Updating BC
debug :
29.85992063492063

DICPCG:  Solving for T, Initial residual = 0.2241481635254575, Final residual = 7.520624267213597e-07, No Iterations 41
Exporting analytical solution
L2 norm of the relative error = 8.220041872626117e-06
Linf norm of the relative error = 2.312713696044889e-05
L2 norm of the error = 0.0002372107006834118
Linf norm of the error = 0.000620674538176047
ExecutionTime = 0.63 s  ClockTime = 1 s

Time = 1

Updating BC
debug :
31.85992063492063

DICPCG:  Solving for T, Initial residual = 0.2844529459222751, Final residual = 8.921798672178854e-07, No Iterations 33
Exporting analytical solution
L2 norm of the relative error = 1.287545015726742e-05
Linf norm of the relative error = 2.999621585441418e-05
L2 norm of the error = 0.0003930359571720951
Linf norm of the error = 0.00086535178840208
ExecutionTime = 0.89 s  ClockTime = 2 s

Time = 1.5

Updating BC
debug :
33.85992063492063

DICPCG:  Solving for T, Initial residual = 0.2844603649107392, Final residual = 8.922659218972027e-07, No Iterations 33
Exporting analytical solution
L2 norm of the relative error = 1.505491122754971e-05
Linf norm of the relative error = 2.99694796190515e-05
L2 norm of the error = 0.0004838931216858634
Linf norm of the error = 0.0009246107775346957
ExecutionTime = 1.07 s  ClockTime = 3 s

Time = 2

Updating BC
debug :
35.85992063492063

DICPCG:  Solving for T, Initial residual = 0.2844606035949153, Final residual = 8.922356034521791e-07, No Iterations 33
Exporting analytical solution
L2 norm of the relative error = 1.664794124754331e-05
Linf norm of the relative error = 3.02553733844727e-05
L2 norm of the error = 0.0005640511372069955
Linf norm of the error = 0.000993867125814063
ExecutionTime = 1.25 s  ClockTime = 3 s

Time = 2.5

Updating BC
debug :
37.85992063492063

DICPCG:  Solving for T, Initial residual = 0.284461289896252, Final residual = 8.922491658402983e-07, No Iterations 33
Exporting analytical solution
L2 norm of the relative error = 1.783161955439648e-05
Linf norm of the relative error = 2.953782523441008e-05
L2 norm of the error = 0.0006359032704173572
Linf norm of the error = 0.001029414122996286
ExecutionTime = 1.45 s  ClockTime = 3 s

Time = 3

Updating BC
debug :
39.85992063492063

DICPCG:  Solving for T, Initial residual = 0.2844608559660716, Final residual = 8.922377911568662e-07, No Iterations 33
Exporting analytical solution
L2 norm of the relative error = 1.874800784632418e-05
Linf norm of the relative error = 2.905140182935216e-05
L2 norm of the error = 0.0007030255292101269
Linf norm of the error = 0.001070541918856804
ExecutionTime = 1.67 s  ClockTime = 4 s

Time = 3.5

Updating BC
debug :
41.85992063492064

DICPCG:  Solving for T, Initial residual = 0.2844608068711887, Final residual = 8.922415958430688e-07, No Iterations 33
Exporting analytical solution
L2 norm of the relative error = 1.942859866403613e-05
Linf norm of the relative error = 2.829341585072331e-05
L2 norm of the error = 0.000764948458285248
Linf norm of the error = 0.001099227700123606
ExecutionTime = 1.84 s  ClockTime = 4 s

Time = 4

Updating BC
debug :
43.85992063492064

DICPCG:  Solving for T, Initial residual = 0.2844604186149459, Final residual = 8.922347001788327e-07, No Iterations 33
Exporting analytical solution
L2 norm of the relative error = 1.991763019925209e-05
Linf norm of the relative error = 2.766281316036256e-05
L2 norm of the error = 0.0008221362937255046
Linf norm of the error = 0.001130043835125605
ExecutionTime = 1.99 s  ClockTime = 4 s

Time = 4.5

Updating BC
debug :
45.85992063492064

DICPCG:  Solving for T, Initial residual = 0.2844602717254845, Final residual = 8.922356720595927e-07, No Iterations 33
Exporting analytical solution
L2 norm of the relative error = 2.024251872848033e-05
Linf norm of the relative error = 2.693209727213162e-05
L2 norm of the error = 0.0008745185542520544
Linf norm of the error = 0.001154082545284041
ExecutionTime = 2.13 s  ClockTime = 5 s

Time = 5

Updating BC
debug :
47.85992063492064

DICPCG:  Solving for T, Initial residual = 0.2844599759787539, Final residual = 8.922312196040813e-07, No Iterations 33
Exporting analytical solution
L2 norm of the relative error = 2.043351227732154e-05
Linf norm of the relative error = 2.62752409407719e-05
L2 norm of the error = 0.0009224461973538938
Linf norm of the error = 0.001178481867832204
ExecutionTime = 2.27 s  ClockTime = 5 s

Time = 5.5

Updating BC
debug :
49.85992063492064

DICPCG:  Solving for T, Initial residual = 0.2844598262057038, Final residual = 8.922311471114911e-07, No Iterations 33
Exporting analytical solution
L2 norm of the relative error = 2.051323899669881e-05
Linf norm of the relative error = 2.558034586871158e-05
L2 norm of the error = 0.0009661153984638698
Linf norm of the error = 0.001198496316433761
ExecutionTime = 2.44 s  ClockTime = 5 s

Time = 6

Updating BC
debug :
51.85992063492064

DICPCG:  Solving for T, Initial residual = 0.284459599384924, Final residual = 8.922280988419734e-07, No Iterations 33
Exporting analytical solution
L2 norm of the relative error = 2.050305046180235e-05
Linf norm of the relative error = 2.49348675556863e-05
L2 norm of the error = 0.00100587656611781
Linf norm of the error = 0.001218123859565878
ExecutionTime = 2.65 s  ClockTime = 6 s

Time = 6.5

Updating BC
debug :
53.85992063492063

DICPCG:  Solving for T, Initial residual = 0.2844594648173998, Final residual = 8.922276180173549e-07, No Iterations 33
Exporting analytical solution
L2 norm of the relative error = 2.041956576111968e-05
Linf norm of the relative error = 2.427929418722796e-05
L2 norm of the error = 0.001041998861911211
Linf norm of the error = 0.001234674141350922
ExecutionTime = 2.81 s  ClockTime = 6 s

Time = 7

Updating BC
debug :
55.85992063492063

DICPCG:  Solving for T, Initial residual = 0.2844592876394945, Final residual = 8.922254338200489e-07, No Iterations 33
Exporting analytical solution
L2 norm of the relative error = 2.027752688079524e-05
Linf norm of the relative error = 2.366110069293229e-05
L2 norm of the error = 0.001074802767948497
Linf norm of the error = 0.00125056179058447
ExecutionTime = 2.95 s  ClockTime = 6 s

Time = 7.5

Updating BC
debug :
57.85992063492063

DICPCG:  Solving for T, Initial residual = 0.2844591715339501, Final residual = 8.92224816897097e-07, No Iterations 33
Exporting analytical solution
L2 norm of the relative error = 2.008860455077684e-05
Linf norm of the relative error = 2.304656586326775e-05
L2 norm of the error = 0.00110455464858443
Linf norm of the error = 0.001264190607265903
ExecutionTime = 3.14 s  ClockTime = 7 s

Time = 8

Updating BC
debug :
59.85992063492063

DICPCG:  Solving for T, Initial residual = 0.2844590312968737, Final residual = 8.922231998235774e-07, No Iterations 33
Exporting analytical solution
L2 norm of the relative error = 1.986287357193981e-05
Linf norm of the relative error = 2.246267364300331e-05
L2 norm of the error = 0.001131532759987652
Linf norm of the error = 0.001277091422963395
ExecutionTime = 3.29 s  ClockTime = 7 s

Time = 8.5

Updating BC
debug :
61.85992063492063

DICPCG:  Solving for T, Initial residual = 0.284458932999033, Final residual = 8.922225701077035e-07, No Iterations 33
Exporting analytical solution
L2 norm of the relative error = 1.960838847658582e-05
Linf norm of the relative error = 2.188947442025297e-05
L2 norm of the error = 0.001155975978568364
Linf norm of the error = 0.001288286775775305
ExecutionTime = 3.44 s  ClockTime = 7 s

Time = 9

Updating BC
debug :
63.85992063492063

DICPCG:  Solving for T, Initial residual = 0.2844588210406475, Final residual = 8.922213446249177e-07, No Iterations 33
Exporting analytical solution
L2 norm of the relative error = 1.933200442514704e-05
Linf norm of the relative error = 2.134252386335253e-05
L2 norm of the error = 0.001178119800187082
Linf norm of the error = 0.001298781504267765
ExecutionTime = 3.58 s  ClockTime = 7 s

Time = 9.5

Updating BC
debug :
65.85992063492063

DICPCG:  Solving for T, Initial residual = 0.284458738701771, Final residual = 8.922207568245448e-07, No Iterations 33
Exporting analytical solution
L2 norm of the relative error = 1.903923202137018e-05
Linf norm of the relative error = 2.080950061996112e-05
L2 norm of the error = 0.001198169835785247
Linf norm of the error = 0.00130796382021714
ExecutionTime = 3.73 s  ClockTime = 8 s

Time = 10

Updating BC
debug :
67.85992063492063

DICPCG:  Solving for T, Initial residual = 0.2844586488059426, Final residual = 8.922198122420806e-07, No Iterations 33
Exporting analytical solution
L2 norm of the relative error = 1.873471761204466e-05
Linf norm of the relative error = 2.029956184661404e-05
L2 norm of the error = 0.001216322757015694
Linf norm of the error = 0.001316511167260614
ExecutionTime = 3.86 s  ClockTime = 8 s


Relative error L2 norm in time = 5.893709941150333e-05
Relative error Linf norm in time = 3.02553733844727e-05

End

Unsteady solution took  = 7.220025 seconds
/*---------------------------------------------------------------------------*\
| =========                 |                                                 |
| \\      /  F ield         | OpenFOAM: The Open Source CFD Toolbox           |
|  \\    /   O peration     | Version:  v2012                                 |
|   \\  /    A nd           | Website:  www.openfoam.com                      |
|    \\/     M anipulation  |                                                 |
\*---------------------------------------------------------------------------*/
Build  : _7bdb509494-20201222 OPENFOAM=2012
Arch   : "LSB;label=32;scalar=64"
Exec   : analyticalBenchmark_unsteady
Date   : Feb 03 2021
Time   : 16:37:54
Host   : inspiron-UM
PID    : 24708
I/O    : uncollated
Case   : /media/Data/ITHACA-FV/tutorials/directHeatTransfer/analyticalBenchmark_unsteady/coarseMesh
nProcs : 1
trapFpe: Floating point exception trapping enabled (FOAM_SIGFPE).
fileModificationChecking : Monitoring run-time modified files using timeStampMaster (fileModificationSkew 5, maxFileModificationPolls 20)
allowSystemOperations : Allowing user-supplied system call operations

// * * * * * * * * * * * * * * * * * * * * * * * * * * * * * * * * * * * * * //
Create time

Create mesh for time = 0


SIMPLE: convergence criteria
    field T	 tolerance 1e-06
    field lambda	 tolerance 1e-06
    field deltaT	 tolerance 1e-06

Create field T
Offline don't exist, performing the Offline Solve
POD don't exist, performing a POD decomposition
debug :
0.01666666666666667, 0.9999999999999998, 0.01666666666666667
27.85992063492063

Thermal diffusivity = diffusivity [0 2 -1 0 0 0 0] 0.1333333333333333 m2/s
Time = 1

Updating BC
debug :
31.85992063492063

DICPCG:  Solving for T, Initial residual = 0.3069277560772647, Final residual = 9.922185807578508e-07, No Iterations 48
Exporting analytical solution
L2 norm of the relative error = 1.117872463087776e-05
Linf norm of the relative error = 2.594219605139193e-05
L2 norm of the error = 0.000339948711401701
Linf norm of the error = 0.0007481080786320149
ExecutionTime = 0.32 s  ClockTime = 0 s

Time = 2

Updating BC
debug :
35.85992063492063

DICPCG:  Solving for T, Initial residual = 0.4084614538283027, Final residual = 9.798563620189878e-07, No Iterations 42
Exporting analytical solution
L2 norm of the relative error = 1.645866649832964e-05
Linf norm of the relative error = 3.047023784810953e-05
L2 norm of the error = 0.000559211316591566
Linf norm of the error = 0.001001544729611226
ExecutionTime = 0.5 s  ClockTime = 1 s

Time = 3

Updating BC
debug :
39.85992063492063

DICPCG:  Solving for T, Initial residual = 0.4084668307927225, Final residual = 9.798917529566169e-07, No Iterations 42
Exporting analytical solution
L2 norm of the relative error = 1.849664829893993e-05
Linf norm of the relative error = 2.848019983426117e-05
L2 norm of the error = 0.0006941579354453776
Linf norm of the error = 0.001049895482012175
ExecutionTime = 0.65 s  ClockTime = 1 s

Time = 4

Updating BC
debug :
43.85992063492064

DICPCG:  Solving for T, Initial residual = 0.4084642193366468, Final residual = 9.798787671040443e-07, No Iterations 42
Exporting analytical solution
L2 norm of the relative error = 1.974752677417968e-05
Linf norm of the relative error = 2.758671962122962e-05
L2 norm of the error = 0.000815759868794993
Linf norm of the error = 0.00112718570074577
ExecutionTime = 0.82 s  ClockTime = 1 s

Time = 5

Updating BC
debug :
47.85992063492064

DICPCG:  Solving for T, Initial residual = 0.4084639256223012, Final residual = 9.798783451615722e-07, No Iterations 42
Exporting analytical solution
L2 norm of the relative error = 2.02973209553588e-05
Linf norm of the relative error = 2.599778956251084e-05
L2 norm of the error = 0.0009166978012143353
Linf norm of the error = 0.001166253618166024
ExecutionTime = 0.96 s  ClockTime = 1 s

Time = 6

Updating BC
debug :
51.85992063492064

DICPCG:  Solving for T, Initial residual = 0.4084624743199132, Final residual = 9.798704613635362e-07, No Iterations 42
Exporting analytical solution
L2 norm of the relative error = 2.040728685394483e-05
Linf norm of the relative error = 2.483537977656844e-05
L2 norm of the error = 0.001001563751592346
Linf norm of the error = 0.001213449757166529
ExecutionTime = 1.11 s  ClockTime = 2 s

Time = 7

Updating BC
debug :
55.85992063492063

DICPCG:  Solving for T, Initial residual = 0.4084620934922563, Final residual = 9.798699271150978e-07, No Iterations 42
Exporting analytical solution
L2 norm of the relative error = 2.020524653427908e-05
Linf norm of the relative error = 2.34927568999489e-05
L2 norm of the error = 0.001071271117303538
Linf norm of the error = 0.001241820603965493
ExecutionTime = 1.25 s  ClockTime = 2 s

Time = 8

Updating BC
debug :
59.85992063492063

DICPCG:  Solving for T, Initial residual = 0.4084612187557968, Final residual = 9.798647439188692e-07, No Iterations 42
Exporting analytical solution
L2 norm of the relative error = 1.981163103551865e-05
Linf norm of the relative error = 2.237265971030769e-05
L2 norm of the error = 0.001128891691071592
Linf norm of the error = 0.001272103216500398
ExecutionTime = 1.4 s  ClockTime = 2 s

Time = 9

Updating BC
debug :
63.85992063492063

DICPCG:  Solving for T, Initial residual = 0.4084609147162298, Final residual = 9.798643628967625e-07, No Iterations 42
Exporting analytical solution
L2 norm of the relative error = 1.929456244369121e-05
Linf norm of the relative error = 2.122454817361573e-05
L2 norm of the error = 0.001176075797673807
Linf norm of the error = 0.001291720106138428
ExecutionTime = 1.53 s  ClockTime = 2 s

Time = 10

Updating BC
debug :
67.85992063492063

DICPCG:  Solving for T, Initial residual = 0.4084603578334648, Final residual = 9.798609063515509e-07, No Iterations 42
Exporting analytical solution
L2 norm of the relative error = 1.870877791823427e-05
Linf norm of the relative error = 2.022133268723845e-05
L2 norm of the error = 0.001214859583626516
Linf norm of the error = 0.001311550021057428
ExecutionTime = 1.68 s  ClockTime = 3 s


Relative error L2 norm in time = 5.898671220586651e-05
Relative error Linf norm in time = 3.047023784810953e-05

End

Unsteady solution took  = 2.415829 seconds
/*---------------------------------------------------------------------------*\
| =========                 |                                                 |
| \\      /  F ield         | OpenFOAM: The Open Source CFD Toolbox           |
|  \\    /   O peration     | Version:  v2012                                 |
|   \\  /    A nd           | Website:  www.openfoam.com                      |
|    \\/     M anipulation  |                                                 |
\*---------------------------------------------------------------------------*/
Build  : _7bdb509494-20201222 OPENFOAM=2012
Arch   : "LSB;label=32;scalar=64"
Exec   : analyticalBenchmark_unsteady
Date   : Feb 03 2021
Time   : 16:37:57
Host   : inspiron-UM
PID    : 25098
I/O    : uncollated
Case   : /media/Data/ITHACA-FV/tutorials/directHeatTransfer/analyticalBenchmark_unsteady/coarseMesh
nProcs : 1
trapFpe: Floating point exception trapping enabled (FOAM_SIGFPE).
fileModificationChecking : Monitoring run-time modified files using timeStampMaster (fileModificationSkew 5, maxFileModificationPolls 20)
allowSystemOperations : Allowing user-supplied system call operations

// * * * * * * * * * * * * * * * * * * * * * * * * * * * * * * * * * * * * * //
Create time

Create mesh for time = 0


SIMPLE: convergence criteria
    field T	 tolerance 1e-06
    field lambda	 tolerance 1e-06
    field deltaT	 tolerance 1e-06

Create field T
Offline don't exist, performing the Offline Solve
POD don't exist, performing a POD decomposition
debug :
0.01666666666666667, 0.9999999999999998, 0.01666666666666667
27.85992063492063

Thermal diffusivity = diffusivity [0 2 -1 0 0 0 0] 0.1333333333333333 m2/s
Time = 2

Updating BC
debug :
35.85992063492063

DICPCG:  Solving for T, Initial residual = 0.3966203906527525, Final residual = 8.742401850139519e-07, No Iterations 53
Exporting analytical solution
L2 norm of the relative error = 1.435476969298137e-05
Linf norm of the relative error = 2.675352460501043e-05
L2 norm of the error = 0.0004863309195743362
Linf norm of the error = 0.0008808293174880077
ExecutionTime = 0.31 s  ClockTime = 0 s

Time = 4

Updating BC
debug :
43.85992063492064

DICPCG:  Solving for T, Initial residual = 0.5085446655949706, Final residual = 7.916128741276147e-07, No Iterations 50
Exporting analytical solution
L2 norm of the relative error = 1.929780434178835e-05
Linf norm of the relative error = 2.789948229011038e-05
L2 norm of the error = 0.0007993096115560599
Linf norm of the error = 0.001140116078488518
ExecutionTime = 0.46 s  ClockTime = 0 s

Time = 6

Updating BC
debug :
51.85992063492064

DICPCG:  Solving for T, Initial residual = 0.5085445397846082, Final residual = 7.916114032935281e-07, No Iterations 50
Exporting analytical solution
L2 norm of the relative error = 2.001782545914323e-05
Linf norm of the relative error = 2.430738664478004e-05
L2 norm of the error = 0.0009824544625426489
Linf norm of the error = 0.001187470525962908
ExecutionTime = 0.61 s  ClockTime = 1 s

Time = 8

Updating BC
debug :
59.85992063492063

DICPCG:  Solving for T, Initial residual = 0.5085403316000978, Final residual = 7.915953816454537e-07, No Iterations 50
Exporting analytical solution
L2 norm of the relative error = 1.962971085341593e-05
Linf norm of the relative error = 2.238762633815012e-05
L2 norm of the error = 0.001118867452099367
Linf norm of the error = 0.001272997724626634
ExecutionTime = 0.76 s  ClockTime = 1 s

Time = 10

Updating BC
debug :
67.85992063492063

DICPCG:  Solving for T, Initial residual = 0.5085396094154409, Final residual = 7.915957062426175e-07, No Iterations 50
Exporting analytical solution
L2 norm of the relative error = 1.85940539914114e-05
Linf norm of the relative error = 2.006977026098756e-05
L2 norm of the error = 0.001207465847511824
Linf norm of the error = 0.001301723243372521
ExecutionTime = 0.91 s  ClockTime = 1 s


Relative error L2 norm in time = 5.848491076319502e-05
Relative error Linf norm in time = 2.789948229011038e-05

End

Unsteady solution took  = 1.138206 seconds
relErrL2 = 
[[5.2755e-04 5.2824e-04 5.2973e-04 5.3015e-04 5.2578e-04]
 [2.3499e-04 2.3497e-04 2.3562e-04 2.3581e-04 2.3384e-04]
 [1.3268e-04 1.3225e-04 1.3257e-04 1.3268e-04 1.3157e-04]
 [8.4790e-05 8.4630e-05 8.4860e-05 8.4930e-05 8.4210e-05]
 [5.8850e-05 5.8800e-05 5.8940e-05 5.8990e-05 5.8480e-05]]
relErrLinf = 
[[2.6056e-04 2.6033e-04 2.6028e-04 2.6390e-04 2.4613e-04]
 [1.1838e-04 1.1833e-04 1.1826e-04 1.1964e-04 1.1042e-04]
 [6.7310e-05 6.7290e-05 6.7310e-05 6.7890e-05 6.2420e-05]
 [4.3420e-05 4.3420e-05 4.3350e-05 4.3660e-05 4.0040e-05]
 [3.0250e-05 3.0340e-05 3.0260e-05 3.0470e-05 2.7900e-05]]
